# generated using pymatgen
data_Fe2O5
_symmetry_space_group_name_H-M   'P 1'
_cell_length_a   26.07668500
_cell_length_b   26.85742200
_cell_length_c   28.78655700
_cell_angle_alpha   90.00000000
_cell_angle_beta   90.00000000
_cell_angle_gamma   90.00000000
_symmetry_Int_Tables_number   1
_chemical_formula_structural   Fe2O5
_chemical_formula_sum   'Fe432 O1080'
_cell_volume   20160.73812299
_cell_formula_units_Z   216
loop_
 _symmetry_equiv_pos_site_id
 _symmetry_equiv_pos_as_xyz
  1  'x, y, z'
loop_
 _atom_type_symbol
 _atom_type_oxidation_number
  Fe3+  3.0
  O2-  -2.0
loop_
 _atom_site_type_symbol
 _atom_site_label
 _atom_site_symmetry_multiplicity
 _atom_site_fract_x
 _atom_site_fract_y
 _atom_site_fract_z
 _atom_site_occupancy
  Fe3+  Fe0  1  0.13754220  0.11344233  0.29060267  1.0
  Fe3+  Fe0  1  0.13754220  0.11344233  0.62393600  1.0
  Fe3+  Fe0  1  0.13754220  0.11344233  0.95726933  1.0
  Fe3+  Fe0  1  0.13754220  0.44677567  0.29060267  1.0
  Fe3+  Fe0  1  0.13754220  0.44677567  0.62393600  1.0
  Fe3+  Fe0  1  0.13754220  0.44677567  0.95726933  1.0
  Fe3+  Fe0  1  0.33754220  0.11344233  0.62393600  1.0
  Fe3+  Fe0  1  0.33754220  0.11344233  0.95726933  1.0
  Fe3+  Fe0  1  0.33754220  0.44677567  0.29060267  1.0
  Fe3+  Fe0  1  0.33754220  0.44677567  0.62393600  1.0
  Fe3+  Fe0  1  0.33754220  0.44677567  0.95726933  1.0
  Fe3+  Fe0  1  0.33754220  0.78010900  0.29060267  1.0
  Fe3+  Fe0  1  0.33754220  0.78010900  0.62393600  1.0
  Fe3+  Fe0  1  0.33754220  0.78010900  0.95726933  1.0
  Fe3+  Fe0  1  0.53754220  0.11344233  0.29060267  1.0
  Fe3+  Fe0  1  0.53754220  0.11344233  0.62393600  1.0
  Fe3+  Fe0  1  0.53754220  0.44677567  0.62393600  1.0
  Fe3+  Fe0  1  0.53754220  0.44677567  0.95726933  1.0
  Fe3+  Fe0  1  0.53754220  0.78010900  0.29060267  1.0
  Fe3+  Fe0  1  0.53754220  0.78010900  0.62393600  1.0
  Fe3+  Fe0  1  0.53754220  0.78010900  0.95726933  1.0
  Fe3+  Fe0  1  0.73754220  0.11344233  0.29060267  1.0
  Fe3+  Fe0  1  0.73754220  0.44677567  0.62393600  1.0
  Fe3+  Fe0  1  0.73754220  0.78010900  0.29060267  1.0
  Fe3+  Fe0  1  0.73754220  0.78010900  0.62393600  1.0
  Fe3+  Fe0  1  0.73754220  0.78010900  0.95726933  1.0
  Fe3+  Fe0  1  0.93754220  0.11344233  0.29060267  1.0
  Fe3+  Fe0  1  0.93754220  0.11344233  0.62393600  1.0
  Fe3+  Fe0  1  0.93754220  0.11344233  0.95726933  1.0
  Fe3+  Fe0  1  0.93754220  0.44677567  0.29060267  1.0
  Fe3+  Fe0  1  0.93754220  0.44677567  0.95726933  1.0
  Fe3+  Fe0  1  0.93754220  0.78010900  0.62393600  1.0
  Fe3+  Fe0  1  0.93754220  0.78010900  0.95726933  1.0
  Fe3+  Fe1  1  0.06245780  0.21989100  0.12393600  1.0
  Fe3+  Fe1  1  0.06245780  0.21989100  0.45726933  1.0
  Fe3+  Fe1  1  0.06245780  0.55322433  0.12393600  1.0
  Fe3+  Fe1  1  0.06245780  0.55322433  0.79060267  1.0
  Fe3+  Fe1  1  0.06245780  0.88655767  0.12393600  1.0
  Fe3+  Fe1  1  0.06245780  0.88655767  0.45726933  1.0
  Fe3+  Fe1  1  0.06245780  0.88655767  0.79060267  1.0
  Fe3+  Fe1  1  0.26245780  0.21989100  0.12393600  1.0
  Fe3+  Fe1  1  0.26245780  0.21989100  0.45726933  1.0
  Fe3+  Fe1  1  0.26245780  0.21989100  0.79060267  1.0
  Fe3+  Fe1  1  0.26245780  0.55322433  0.12393600  1.0
  Fe3+  Fe1  1  0.26245780  0.55322433  0.45726933  1.0
  Fe3+  Fe1  1  0.26245780  0.55322433  0.79060267  1.0
  Fe3+  Fe1  1  0.26245780  0.88655767  0.45726933  1.0
  Fe3+  Fe1  1  0.26245780  0.88655767  0.79060267  1.0
  Fe3+  Fe1  1  0.46245780  0.21989100  0.12393600  1.0
  Fe3+  Fe1  1  0.46245780  0.21989100  0.79060267  1.0
  Fe3+  Fe1  1  0.46245780  0.55322433  0.12393600  1.0
  Fe3+  Fe1  1  0.46245780  0.55322433  0.45726933  1.0
  Fe3+  Fe1  1  0.46245780  0.55322433  0.79060267  1.0
  Fe3+  Fe1  1  0.46245780  0.88655767  0.12393600  1.0
  Fe3+  Fe1  1  0.46245780  0.88655767  0.45726933  1.0
  Fe3+  Fe1  1  0.46245780  0.88655767  0.79060267  1.0
  Fe3+  Fe1  1  0.66245780  0.21989100  0.12393600  1.0
  Fe3+  Fe1  1  0.66245780  0.21989100  0.45726933  1.0
  Fe3+  Fe1  1  0.66245780  0.55322433  0.45726933  1.0
  Fe3+  Fe1  1  0.66245780  0.88655767  0.45726933  1.0
  Fe3+  Fe1  1  0.66245780  0.88655767  0.79060267  1.0
  Fe3+  Fe1  1  0.86245780  0.21989100  0.12393600  1.0
  Fe3+  Fe1  1  0.86245780  0.21989100  0.45726933  1.0
  Fe3+  Fe1  1  0.86245780  0.21989100  0.79060267  1.0
  Fe3+  Fe1  1  0.86245780  0.55322433  0.12393600  1.0
  Fe3+  Fe1  1  0.86245780  0.55322433  0.45726933  1.0
  Fe3+  Fe1  1  0.86245780  0.55322433  0.79060267  1.0
  Fe3+  Fe1  1  0.86245780  0.88655767  0.12393600  1.0
  Fe3+  Fe1  1  0.86245780  0.88655767  0.79060267  1.0
  Fe3+  Fe2  1  0.03754220  0.05322433  0.29060267  1.0
  Fe3+  Fe2  1  0.03754220  0.05322433  0.62393600  1.0
  Fe3+  Fe2  1  0.03754220  0.05322433  0.95726933  1.0
  Fe3+  Fe2  1  0.03754220  0.38655767  0.29060267  1.0
  Fe3+  Fe2  1  0.03754220  0.38655767  0.62393600  1.0
  Fe3+  Fe2  1  0.03754220  0.38655767  0.95726933  1.0
  Fe3+  Fe2  1  0.03754220  0.71989100  0.29060267  1.0
  Fe3+  Fe2  1  0.03754220  0.71989100  0.62393600  1.0
  Fe3+  Fe2  1  0.03754220  0.71989100  0.95726933  1.0
  Fe3+  Fe2  1  0.23754220  0.05322433  0.29060267  1.0
  Fe3+  Fe2  1  0.23754220  0.05322433  0.62393600  1.0
  Fe3+  Fe2  1  0.23754220  0.05322433  0.95726933  1.0
  Fe3+  Fe2  1  0.23754220  0.38655767  0.29060267  1.0
  Fe3+  Fe2  1  0.23754220  0.38655767  0.62393600  1.0
  Fe3+  Fe2  1  0.23754220  0.38655767  0.95726933  1.0
  Fe3+  Fe2  1  0.23754220  0.71989100  0.29060267  1.0
  Fe3+  Fe2  1  0.43754220  0.05322433  0.29060267  1.0
  Fe3+  Fe2  1  0.43754220  0.05322433  0.62393600  1.0
  Fe3+  Fe2  1  0.43754220  0.05322433  0.95726933  1.0
  Fe3+  Fe2  1  0.43754220  0.38655767  0.29060267  1.0
  Fe3+  Fe2  1  0.43754220  0.38655767  0.62393600  1.0
  Fe3+  Fe2  1  0.43754220  0.38655767  0.95726933  1.0
  Fe3+  Fe2  1  0.43754220  0.71989100  0.29060267  1.0
  Fe3+  Fe2  1  0.43754220  0.71989100  0.62393600  1.0
  Fe3+  Fe2  1  0.63754220  0.05322433  0.29060267  1.0
  Fe3+  Fe2  1  0.63754220  0.38655767  0.29060267  1.0
  Fe3+  Fe2  1  0.63754220  0.38655767  0.62393600  1.0
  Fe3+  Fe2  1  0.63754220  0.38655767  0.95726933  1.0
  Fe3+  Fe2  1  0.63754220  0.71989100  0.29060267  1.0
  Fe3+  Fe2  1  0.63754220  0.71989100  0.62393600  1.0
  Fe3+  Fe2  1  0.63754220  0.71989100  0.95726933  1.0
  Fe3+  Fe2  1  0.83754220  0.05322433  0.95726933  1.0
  Fe3+  Fe2  1  0.83754220  0.38655767  0.29060267  1.0
  Fe3+  Fe2  1  0.83754220  0.38655767  0.62393600  1.0
  Fe3+  Fe2  1  0.83754220  0.38655767  0.95726933  1.0
  Fe3+  Fe2  1  0.83754220  0.71989100  0.29060267  1.0
  Fe3+  Fe2  1  0.83754220  0.71989100  0.95726933  1.0
  Fe3+  Fe3  1  0.16245780  0.28010900  0.12393600  1.0
  Fe3+  Fe3  1  0.16245780  0.28010900  0.79060267  1.0
  Fe3+  Fe3  1  0.16245780  0.61344233  0.45726933  1.0
  Fe3+  Fe3  1  0.16245780  0.61344233  0.79060267  1.0
  Fe3+  Fe3  1  0.16245780  0.94677567  0.79060267  1.0
  Fe3+  Fe3  1  0.36245780  0.28010900  0.12393600  1.0
  Fe3+  Fe3  1  0.36245780  0.28010900  0.45726933  1.0
  Fe3+  Fe3  1  0.36245780  0.61344233  0.12393600  1.0
  Fe3+  Fe3  1  0.36245780  0.61344233  0.79060267  1.0
  Fe3+  Fe3  1  0.36245780  0.94677567  0.12393600  1.0
  Fe3+  Fe3  1  0.36245780  0.94677567  0.45726933  1.0
  Fe3+  Fe3  1  0.36245780  0.94677567  0.79060267  1.0
  Fe3+  Fe3  1  0.56245780  0.28010900  0.12393600  1.0
  Fe3+  Fe3  1  0.56245780  0.28010900  0.45726933  1.0
  Fe3+  Fe3  1  0.56245780  0.28010900  0.79060267  1.0
  Fe3+  Fe3  1  0.56245780  0.61344233  0.12393600  1.0
  Fe3+  Fe3  1  0.56245780  0.61344233  0.45726933  1.0
  Fe3+  Fe3  1  0.56245780  0.61344233  0.79060267  1.0
  Fe3+  Fe3  1  0.56245780  0.94677567  0.12393600  1.0
  Fe3+  Fe3  1  0.56245780  0.94677567  0.45726933  1.0
  Fe3+  Fe3  1  0.76245780  0.28010900  0.12393600  1.0
  Fe3+  Fe3  1  0.76245780  0.28010900  0.45726933  1.0
  Fe3+  Fe3  1  0.76245780  0.61344233  0.12393600  1.0
  Fe3+  Fe3  1  0.76245780  0.61344233  0.45726933  1.0
  Fe3+  Fe3  1  0.76245780  0.61344233  0.79060267  1.0
  Fe3+  Fe3  1  0.76245780  0.94677567  0.12393600  1.0
  Fe3+  Fe3  1  0.76245780  0.94677567  0.45726933  1.0
  Fe3+  Fe3  1  0.76245780  0.94677567  0.79060267  1.0
  Fe3+  Fe3  1  0.96245780  0.28010900  0.12393600  1.0
  Fe3+  Fe3  1  0.96245780  0.28010900  0.79060267  1.0
  Fe3+  Fe3  1  0.96245780  0.61344233  0.12393600  1.0
  Fe3+  Fe3  1  0.96245780  0.61344233  0.79060267  1.0
  Fe3+  Fe3  1  0.96245780  0.94677567  0.12393600  1.0
  Fe3+  Fe3  1  0.96245780  0.94677567  0.45726933  1.0
  Fe3+  Fe3  1  0.96245780  0.94677567  0.79060267  1.0
  Fe3+  Fe8  1  0.13828200  0.21756900  0.54832400  1.0
  Fe3+  Fe8  1  0.13828200  0.21756900  0.88165733  1.0
  Fe3+  Fe8  1  0.13828200  0.55090233  0.21499067  1.0
  Fe3+  Fe8  1  0.13828200  0.55090233  0.54832400  1.0
  Fe3+  Fe8  1  0.13828200  0.55090233  0.88165733  1.0
  Fe3+  Fe8  1  0.13828200  0.88423567  0.21499067  1.0
  Fe3+  Fe8  1  0.13828200  0.88423567  0.54832400  1.0
  Fe3+  Fe8  1  0.13828200  0.88423567  0.88165733  1.0
  Fe3+  Fe8  1  0.33828200  0.21756900  0.21499067  1.0
  Fe3+  Fe8  1  0.33828200  0.21756900  0.54832400  1.0
  Fe3+  Fe8  1  0.33828200  0.21756900  0.88165733  1.0
  Fe3+  Fe8  1  0.33828200  0.55090233  0.21499067  1.0
  Fe3+  Fe8  1  0.33828200  0.55090233  0.54832400  1.0
  Fe3+  Fe8  1  0.33828200  0.55090233  0.88165733  1.0
  Fe3+  Fe8  1  0.33828200  0.88423567  0.21499067  1.0
  Fe3+  Fe8  1  0.33828200  0.88423567  0.54832400  1.0
  Fe3+  Fe8  1  0.33828200  0.88423567  0.88165733  1.0
  Fe3+  Fe8  1  0.53828200  0.21756900  0.54832400  1.0
  Fe3+  Fe8  1  0.53828200  0.21756900  0.88165733  1.0
  Fe3+  Fe8  1  0.53828200  0.55090233  0.21499067  1.0
  Fe3+  Fe8  1  0.53828200  0.55090233  0.88165733  1.0
  Fe3+  Fe8  1  0.53828200  0.88423567  0.21499067  1.0
  Fe3+  Fe8  1  0.53828200  0.88423567  0.54832400  1.0
  Fe3+  Fe8  1  0.53828200  0.88423567  0.88165733  1.0
  Fe3+  Fe8  1  0.73828200  0.21756900  0.21499067  1.0
  Fe3+  Fe8  1  0.73828200  0.21756900  0.54832400  1.0
  Fe3+  Fe8  1  0.73828200  0.21756900  0.88165733  1.0
  Fe3+  Fe8  1  0.73828200  0.55090233  0.21499067  1.0
  Fe3+  Fe8  1  0.73828200  0.55090233  0.54832400  1.0
  Fe3+  Fe8  1  0.73828200  0.55090233  0.88165733  1.0
  Fe3+  Fe8  1  0.73828200  0.88423567  0.54832400  1.0
  Fe3+  Fe8  1  0.93828200  0.21756900  0.21499067  1.0
  Fe3+  Fe8  1  0.93828200  0.21756900  0.54832400  1.0
  Fe3+  Fe8  1  0.93828200  0.21756900  0.88165733  1.0
  Fe3+  Fe8  1  0.93828200  0.55090233  0.21499067  1.0
  Fe3+  Fe8  1  0.93828200  0.55090233  0.54832400  1.0
  Fe3+  Fe8  1  0.93828200  0.88423567  0.21499067  1.0
  Fe3+  Fe8  1  0.93828200  0.88423567  0.54832400  1.0
  Fe3+  Fe8  1  0.93828200  0.88423567  0.88165733  1.0
  Fe3+  Fe9  1  0.16171800  0.05090233  0.04832400  1.0
  Fe3+  Fe9  1  0.16171800  0.05090233  0.38165733  1.0
  Fe3+  Fe9  1  0.16171800  0.05090233  0.71499067  1.0
  Fe3+  Fe9  1  0.16171800  0.38423567  0.04832400  1.0
  Fe3+  Fe9  1  0.16171800  0.38423567  0.38165733  1.0
  Fe3+  Fe9  1  0.16171800  0.38423567  0.71499067  1.0
  Fe3+  Fe9  1  0.16171800  0.71756900  0.04832400  1.0
  Fe3+  Fe9  1  0.16171800  0.71756900  0.38165733  1.0
  Fe3+  Fe9  1  0.16171800  0.71756900  0.71499067  1.0
  Fe3+  Fe9  1  0.36171800  0.05090233  0.38165733  1.0
  Fe3+  Fe9  1  0.36171800  0.05090233  0.71499067  1.0
  Fe3+  Fe9  1  0.36171800  0.38423567  0.04832400  1.0
  Fe3+  Fe9  1  0.36171800  0.38423567  0.38165733  1.0
  Fe3+  Fe9  1  0.36171800  0.38423567  0.71499067  1.0
  Fe3+  Fe9  1  0.36171800  0.71756900  0.04832400  1.0
  Fe3+  Fe9  1  0.36171800  0.71756900  0.38165733  1.0
  Fe3+  Fe9  1  0.36171800  0.71756900  0.71499067  1.0
  Fe3+  Fe9  1  0.56171800  0.05090233  0.04832400  1.0
  Fe3+  Fe9  1  0.56171800  0.05090233  0.38165733  1.0
  Fe3+  Fe9  1  0.56171800  0.05090233  0.71499067  1.0
  Fe3+  Fe9  1  0.56171800  0.38423567  0.38165733  1.0
  Fe3+  Fe9  1  0.56171800  0.38423567  0.71499067  1.0
  Fe3+  Fe9  1  0.56171800  0.71756900  0.38165733  1.0
  Fe3+  Fe9  1  0.56171800  0.71756900  0.71499067  1.0
  Fe3+  Fe9  1  0.76171800  0.05090233  0.04832400  1.0
  Fe3+  Fe9  1  0.76171800  0.05090233  0.38165733  1.0
  Fe3+  Fe9  1  0.76171800  0.38423567  0.04832400  1.0
  Fe3+  Fe9  1  0.76171800  0.38423567  0.38165733  1.0
  Fe3+  Fe9  1  0.76171800  0.38423567  0.71499067  1.0
  Fe3+  Fe9  1  0.76171800  0.71756900  0.04832400  1.0
  Fe3+  Fe9  1  0.76171800  0.71756900  0.38165733  1.0
  Fe3+  Fe9  1  0.76171800  0.71756900  0.71499067  1.0
  Fe3+  Fe9  1  0.96171800  0.05090233  0.04832400  1.0
  Fe3+  Fe9  1  0.96171800  0.05090233  0.38165733  1.0
  Fe3+  Fe9  1  0.96171800  0.05090233  0.71499067  1.0
  Fe3+  Fe9  1  0.96171800  0.38423567  0.04832400  1.0
  Fe3+  Fe9  1  0.96171800  0.38423567  0.71499067  1.0
  Fe3+  Fe9  1  0.96171800  0.71756900  0.04832400  1.0
  Fe3+  Fe9  1  0.96171800  0.71756900  0.38165733  1.0
  Fe3+  Fe10  1  0.06171800  0.11576433  0.04832400  1.0
  Fe3+  Fe10  1  0.06171800  0.11576433  0.71499067  1.0
  Fe3+  Fe10  1  0.06171800  0.44909767  0.04832400  1.0
  Fe3+  Fe10  1  0.06171800  0.44909767  0.71499067  1.0
  Fe3+  Fe10  1  0.06171800  0.78243100  0.04832400  1.0
  Fe3+  Fe10  1  0.06171800  0.78243100  0.38165733  1.0
  Fe3+  Fe10  1  0.26171800  0.11576433  0.04832400  1.0
  Fe3+  Fe10  1  0.26171800  0.44909767  0.04832400  1.0
  Fe3+  Fe10  1  0.26171800  0.44909767  0.38165733  1.0
  Fe3+  Fe10  1  0.26171800  0.78243100  0.04832400  1.0
  Fe3+  Fe10  1  0.26171800  0.78243100  0.38165733  1.0
  Fe3+  Fe10  1  0.26171800  0.78243100  0.71499067  1.0
  Fe3+  Fe10  1  0.46171800  0.11576433  0.04832400  1.0
  Fe3+  Fe10  1  0.46171800  0.11576433  0.71499067  1.0
  Fe3+  Fe10  1  0.46171800  0.44909767  0.38165733  1.0
  Fe3+  Fe10  1  0.46171800  0.44909767  0.71499067  1.0
  Fe3+  Fe10  1  0.46171800  0.78243100  0.04832400  1.0
  Fe3+  Fe10  1  0.46171800  0.78243100  0.38165733  1.0
  Fe3+  Fe10  1  0.66171800  0.11576433  0.04832400  1.0
  Fe3+  Fe10  1  0.66171800  0.11576433  0.38165733  1.0
  Fe3+  Fe10  1  0.66171800  0.11576433  0.71499067  1.0
  Fe3+  Fe10  1  0.66171800  0.44909767  0.04832400  1.0
  Fe3+  Fe10  1  0.66171800  0.44909767  0.71499067  1.0
  Fe3+  Fe10  1  0.66171800  0.78243100  0.04832400  1.0
  Fe3+  Fe10  1  0.66171800  0.78243100  0.38165733  1.0
  Fe3+  Fe10  1  0.66171800  0.78243100  0.71499067  1.0
  Fe3+  Fe10  1  0.86171800  0.11576433  0.04832400  1.0
  Fe3+  Fe10  1  0.86171800  0.11576433  0.71499067  1.0
  Fe3+  Fe10  1  0.86171800  0.44909767  0.04832400  1.0
  Fe3+  Fe10  1  0.86171800  0.44909767  0.71499067  1.0
  Fe3+  Fe10  1  0.86171800  0.78243100  0.04832400  1.0
  Fe3+  Fe10  1  0.86171800  0.78243100  0.71499067  1.0
  Fe3+  Fe11  1  0.03828200  0.28243100  0.21499067  1.0
  Fe3+  Fe11  1  0.03828200  0.28243100  0.54832400  1.0
  Fe3+  Fe11  1  0.03828200  0.61576433  0.21499067  1.0
  Fe3+  Fe11  1  0.03828200  0.61576433  0.54832400  1.0
  Fe3+  Fe11  1  0.03828200  0.94909767  0.54832400  1.0
  Fe3+  Fe11  1  0.03828200  0.94909767  0.88165733  1.0
  Fe3+  Fe11  1  0.23828200  0.28243100  0.54832400  1.0
  Fe3+  Fe11  1  0.23828200  0.61576433  0.88165733  1.0
  Fe3+  Fe11  1  0.23828200  0.94909767  0.21499067  1.0
  Fe3+  Fe11  1  0.23828200  0.94909767  0.54832400  1.0
  Fe3+  Fe11  1  0.23828200  0.94909767  0.88165733  1.0
  Fe3+  Fe11  1  0.43828200  0.28243100  0.21499067  1.0
  Fe3+  Fe11  1  0.43828200  0.28243100  0.54832400  1.0
  Fe3+  Fe11  1  0.43828200  0.28243100  0.88165733  1.0
  Fe3+  Fe11  1  0.43828200  0.61576433  0.21499067  1.0
  Fe3+  Fe11  1  0.43828200  0.61576433  0.54832400  1.0
  Fe3+  Fe11  1  0.43828200  0.61576433  0.88165733  1.0
  Fe3+  Fe11  1  0.43828200  0.94909767  0.54832400  1.0
  Fe3+  Fe11  1  0.43828200  0.94909767  0.88165733  1.0
  Fe3+  Fe11  1  0.63828200  0.28243100  0.21499067  1.0
  Fe3+  Fe11  1  0.63828200  0.28243100  0.54832400  1.0
  Fe3+  Fe11  1  0.63828200  0.28243100  0.88165733  1.0
  Fe3+  Fe11  1  0.63828200  0.61576433  0.54832400  1.0
  Fe3+  Fe11  1  0.63828200  0.61576433  0.88165733  1.0
  Fe3+  Fe11  1  0.63828200  0.94909767  0.54832400  1.0
  Fe3+  Fe11  1  0.63828200  0.94909767  0.88165733  1.0
  Fe3+  Fe11  1  0.83828200  0.28243100  0.21499067  1.0
  Fe3+  Fe11  1  0.83828200  0.28243100  0.54832400  1.0
  Fe3+  Fe11  1  0.83828200  0.28243100  0.88165733  1.0
  Fe3+  Fe11  1  0.83828200  0.61576433  0.21499067  1.0
  Fe3+  Fe11  1  0.83828200  0.61576433  0.54832400  1.0
  Fe3+  Fe11  1  0.83828200  0.61576433  0.88165733  1.0
  Fe3+  Fe11  1  0.83828200  0.94909767  0.21499067  1.0
  Fe3+  Fe11  1  0.83828200  0.94909767  0.54832400  1.0
  Fe3+  Fe12  1  0.03512360  0.17718467  0.28648233  1.0
  Fe3+  Fe12  1  0.03512360  0.17718467  0.61981567  1.0
  Fe3+  Fe12  1  0.03512360  0.51051800  0.28648233  1.0
  Fe3+  Fe12  1  0.03512360  0.51051800  0.61981567  1.0
  Fe3+  Fe12  1  0.03512360  0.84385133  0.61981567  1.0
  Fe3+  Fe12  1  0.03512360  0.84385133  0.95314900  1.0
  Fe3+  Fe12  1  0.23512360  0.17718467  0.28648233  1.0
  Fe3+  Fe12  1  0.23512360  0.17718467  0.61981567  1.0
  Fe3+  Fe12  1  0.23512360  0.17718467  0.95314900  1.0
  Fe3+  Fe12  1  0.23512360  0.51051800  0.28648233  1.0
  Fe3+  Fe12  1  0.23512360  0.51051800  0.61981567  1.0
  Fe3+  Fe12  1  0.23512360  0.51051800  0.95314900  1.0
  Fe3+  Fe12  1  0.23512360  0.84385133  0.28648233  1.0
  Fe3+  Fe12  1  0.23512360  0.84385133  0.61981567  1.0
  Fe3+  Fe12  1  0.23512360  0.84385133  0.95314900  1.0
  Fe3+  Fe12  1  0.43512360  0.17718467  0.61981567  1.0
  Fe3+  Fe12  1  0.43512360  0.17718467  0.95314900  1.0
  Fe3+  Fe12  1  0.43512360  0.51051800  0.28648233  1.0
  Fe3+  Fe12  1  0.43512360  0.51051800  0.61981567  1.0
  Fe3+  Fe12  1  0.43512360  0.51051800  0.95314900  1.0
  Fe3+  Fe12  1  0.43512360  0.84385133  0.28648233  1.0
  Fe3+  Fe12  1  0.43512360  0.84385133  0.61981567  1.0
  Fe3+  Fe12  1  0.43512360  0.84385133  0.95314900  1.0
  Fe3+  Fe12  1  0.63512360  0.17718467  0.28648233  1.0
  Fe3+  Fe12  1  0.63512360  0.17718467  0.61981567  1.0
  Fe3+  Fe12  1  0.63512360  0.51051800  0.28648233  1.0
  Fe3+  Fe12  1  0.63512360  0.51051800  0.61981567  1.0
  Fe3+  Fe12  1  0.63512360  0.51051800  0.95314900  1.0
  Fe3+  Fe12  1  0.63512360  0.84385133  0.61981567  1.0
  Fe3+  Fe12  1  0.63512360  0.84385133  0.95314900  1.0
  Fe3+  Fe12  1  0.83512360  0.17718467  0.95314900  1.0
  Fe3+  Fe12  1  0.83512360  0.51051800  0.28648233  1.0
  Fe3+  Fe12  1  0.83512360  0.51051800  0.95314900  1.0
  Fe3+  Fe12  1  0.83512360  0.84385133  0.28648233  1.0
  Fe3+  Fe12  1  0.83512360  0.84385133  0.61981567  1.0
  Fe3+  Fe13  1  0.13512360  0.32281533  0.28648233  1.0
  Fe3+  Fe13  1  0.13512360  0.32281533  0.61981567  1.0
  Fe3+  Fe13  1  0.13512360  0.32281533  0.95314900  1.0
  Fe3+  Fe13  1  0.13512360  0.65614867  0.28648233  1.0
  Fe3+  Fe13  1  0.13512360  0.98948200  0.61981567  1.0
  Fe3+  Fe13  1  0.13512360  0.98948200  0.95314900  1.0
  Fe3+  Fe13  1  0.33512360  0.32281533  0.28648233  1.0
  Fe3+  Fe13  1  0.33512360  0.32281533  0.95314900  1.0
  Fe3+  Fe13  1  0.33512360  0.65614867  0.28648233  1.0
  Fe3+  Fe13  1  0.33512360  0.65614867  0.61981567  1.0
  Fe3+  Fe13  1  0.33512360  0.98948200  0.28648233  1.0
  Fe3+  Fe13  1  0.33512360  0.98948200  0.61981567  1.0
  Fe3+  Fe13  1  0.53512360  0.32281533  0.95314900  1.0
  Fe3+  Fe13  1  0.53512360  0.65614867  0.28648233  1.0
  Fe3+  Fe13  1  0.53512360  0.65614867  0.95314900  1.0
  Fe3+  Fe13  1  0.53512360  0.98948200  0.28648233  1.0
  Fe3+  Fe13  1  0.53512360  0.98948200  0.61981567  1.0
  Fe3+  Fe13  1  0.53512360  0.98948200  0.95314900  1.0
  Fe3+  Fe13  1  0.73512360  0.32281533  0.28648233  1.0
  Fe3+  Fe13  1  0.73512360  0.32281533  0.61981567  1.0
  Fe3+  Fe13  1  0.73512360  0.32281533  0.95314900  1.0
  Fe3+  Fe13  1  0.73512360  0.65614867  0.28648233  1.0
  Fe3+  Fe13  1  0.73512360  0.65614867  0.61981567  1.0
  Fe3+  Fe13  1  0.73512360  0.65614867  0.95314900  1.0
  Fe3+  Fe13  1  0.73512360  0.98948200  0.28648233  1.0
  Fe3+  Fe13  1  0.73512360  0.98948200  0.61981567  1.0
  Fe3+  Fe13  1  0.73512360  0.98948200  0.95314900  1.0
  Fe3+  Fe13  1  0.93512360  0.32281533  0.28648233  1.0
  Fe3+  Fe13  1  0.93512360  0.32281533  0.61981567  1.0
  Fe3+  Fe13  1  0.93512360  0.32281533  0.95314900  1.0
  Fe3+  Fe13  1  0.93512360  0.65614867  0.28648233  1.0
  Fe3+  Fe13  1  0.93512360  0.65614867  0.61981567  1.0
  Fe3+  Fe13  1  0.93512360  0.65614867  0.95314900  1.0
  Fe3+  Fe13  1  0.93512360  0.98948200  0.28648233  1.0
  Fe3+  Fe13  1  0.93512360  0.98948200  0.61981567  1.0
  Fe3+  Fe13  1  0.93512360  0.98948200  0.95314900  1.0
  Fe3+  Fe14  1  0.16487640  0.15614867  0.11981567  1.0
  Fe3+  Fe14  1  0.16487640  0.15614867  0.45314900  1.0
  Fe3+  Fe14  1  0.16487640  0.48948200  0.11981567  1.0
  Fe3+  Fe14  1  0.16487640  0.48948200  0.45314900  1.0
  Fe3+  Fe14  1  0.16487640  0.48948200  0.78648233  1.0
  Fe3+  Fe14  1  0.16487640  0.82281533  0.11981567  1.0
  Fe3+  Fe14  1  0.16487640  0.82281533  0.45314900  1.0
  Fe3+  Fe14  1  0.16487640  0.82281533  0.78648233  1.0
  Fe3+  Fe14  1  0.36487640  0.15614867  0.11981567  1.0
  Fe3+  Fe14  1  0.36487640  0.48948200  0.11981567  1.0
  Fe3+  Fe14  1  0.36487640  0.48948200  0.45314900  1.0
  Fe3+  Fe14  1  0.36487640  0.48948200  0.78648233  1.0
  Fe3+  Fe14  1  0.36487640  0.82281533  0.11981567  1.0
  Fe3+  Fe14  1  0.36487640  0.82281533  0.78648233  1.0
  Fe3+  Fe14  1  0.56487640  0.15614867  0.11981567  1.0
  Fe3+  Fe14  1  0.56487640  0.15614867  0.45314900  1.0
  Fe3+  Fe14  1  0.56487640  0.15614867  0.78648233  1.0
  Fe3+  Fe14  1  0.56487640  0.48948200  0.11981567  1.0
  Fe3+  Fe14  1  0.56487640  0.48948200  0.45314900  1.0
  Fe3+  Fe14  1  0.56487640  0.48948200  0.78648233  1.0
  Fe3+  Fe14  1  0.56487640  0.82281533  0.11981567  1.0
  Fe3+  Fe14  1  0.56487640  0.82281533  0.78648233  1.0
  Fe3+  Fe14  1  0.76487640  0.15614867  0.11981567  1.0
  Fe3+  Fe14  1  0.76487640  0.15614867  0.45314900  1.0
  Fe3+  Fe14  1  0.76487640  0.48948200  0.11981567  1.0
  Fe3+  Fe14  1  0.76487640  0.48948200  0.45314900  1.0
  Fe3+  Fe14  1  0.76487640  0.48948200  0.78648233  1.0
  Fe3+  Fe14  1  0.76487640  0.82281533  0.11981567  1.0
  Fe3+  Fe14  1  0.76487640  0.82281533  0.78648233  1.0
  Fe3+  Fe14  1  0.96487640  0.15614867  0.11981567  1.0
  Fe3+  Fe14  1  0.96487640  0.15614867  0.45314900  1.0
  Fe3+  Fe14  1  0.96487640  0.15614867  0.78648233  1.0
  Fe3+  Fe14  1  0.96487640  0.48948200  0.11981567  1.0
  Fe3+  Fe14  1  0.96487640  0.48948200  0.45314900  1.0
  Fe3+  Fe14  1  0.96487640  0.48948200  0.78648233  1.0
  Fe3+  Fe14  1  0.96487640  0.82281533  0.11981567  1.0
  Fe3+  Fe14  1  0.96487640  0.82281533  0.45314900  1.0
  Fe3+  Fe14  1  0.96487640  0.82281533  0.78648233  1.0
  Fe3+  Fe15  1  0.06487640  0.01051800  0.45314900  1.0
  Fe3+  Fe15  1  0.06487640  0.01051800  0.78648233  1.0
  Fe3+  Fe15  1  0.06487640  0.34385133  0.11981567  1.0
  Fe3+  Fe15  1  0.06487640  0.34385133  0.45314900  1.0
  Fe3+  Fe15  1  0.06487640  0.67718467  0.11981567  1.0
  Fe3+  Fe15  1  0.06487640  0.67718467  0.45314900  1.0
  Fe3+  Fe15  1  0.06487640  0.67718467  0.78648233  1.0
  Fe3+  Fe15  1  0.26487640  0.01051800  0.11981567  1.0
  Fe3+  Fe15  1  0.26487640  0.01051800  0.45314900  1.0
  Fe3+  Fe15  1  0.26487640  0.01051800  0.78648233  1.0
  Fe3+  Fe15  1  0.26487640  0.34385133  0.11981567  1.0
  Fe3+  Fe15  1  0.26487640  0.34385133  0.45314900  1.0
  Fe3+  Fe15  1  0.26487640  0.34385133  0.78648233  1.0
  Fe3+  Fe15  1  0.26487640  0.67718467  0.11981567  1.0
  Fe3+  Fe15  1  0.26487640  0.67718467  0.45314900  1.0
  Fe3+  Fe15  1  0.46487640  0.01051800  0.11981567  1.0
  Fe3+  Fe15  1  0.46487640  0.01051800  0.45314900  1.0
  Fe3+  Fe15  1  0.46487640  0.01051800  0.78648233  1.0
  Fe3+  Fe15  1  0.46487640  0.34385133  0.45314900  1.0
  Fe3+  Fe15  1  0.46487640  0.34385133  0.78648233  1.0
  Fe3+  Fe15  1  0.66487640  0.01051800  0.11981567  1.0
  Fe3+  Fe15  1  0.66487640  0.01051800  0.45314900  1.0
  Fe3+  Fe15  1  0.66487640  0.01051800  0.78648233  1.0
  Fe3+  Fe15  1  0.66487640  0.34385133  0.11981567  1.0
  Fe3+  Fe15  1  0.66487640  0.34385133  0.45314900  1.0
  Fe3+  Fe15  1  0.66487640  0.34385133  0.78648233  1.0
  Fe3+  Fe15  1  0.66487640  0.67718467  0.11981567  1.0
  Fe3+  Fe15  1  0.66487640  0.67718467  0.45314900  1.0
  Fe3+  Fe15  1  0.66487640  0.67718467  0.78648233  1.0
  Fe3+  Fe15  1  0.86487640  0.01051800  0.11981567  1.0
  Fe3+  Fe15  1  0.86487640  0.01051800  0.45314900  1.0
  Fe3+  Fe15  1  0.86487640  0.01051800  0.78648233  1.0
  Fe3+  Fe15  1  0.86487640  0.34385133  0.11981567  1.0
  Fe3+  Fe15  1  0.86487640  0.34385133  0.45314900  1.0
  Fe3+  Fe15  1  0.86487640  0.34385133  0.78648233  1.0
  Fe3+  Fe15  1  0.86487640  0.67718467  0.11981567  1.0
  Fe3+  Fe15  1  0.86487640  0.67718467  0.45314900  1.0
  Fe3+  Fe15  1  0.86487640  0.67718467  0.78648233  1.0
  O2-  O16  1  0.16766700  0.05299300  0.25418600  1.0
  O2-  O16  1  0.16766700  0.05299300  0.58751933  1.0
  O2-  O16  1  0.16766700  0.05299300  0.92085267  1.0
  O2-  O16  1  0.16766700  0.38632633  0.25418600  1.0
  O2-  O16  1  0.16766700  0.38632633  0.58751933  1.0
  O2-  O16  1  0.16766700  0.38632633  0.92085267  1.0
  O2-  O16  1  0.16766700  0.71965967  0.25418600  1.0
  O2-  O16  1  0.16766700  0.71965967  0.58751933  1.0
  O2-  O16  1  0.16766700  0.71965967  0.92085267  1.0
  O2-  O16  1  0.36766700  0.05299300  0.25418600  1.0
  O2-  O16  1  0.36766700  0.05299300  0.58751933  1.0
  O2-  O16  1  0.36766700  0.05299300  0.92085267  1.0
  O2-  O16  1  0.36766700  0.38632633  0.25418600  1.0
  O2-  O16  1  0.36766700  0.38632633  0.58751933  1.0
  O2-  O16  1  0.36766700  0.38632633  0.92085267  1.0
  O2-  O16  1  0.36766700  0.71965967  0.25418600  1.0
  O2-  O16  1  0.36766700  0.71965967  0.58751933  1.0
  O2-  O16  1  0.36766700  0.71965967  0.92085267  1.0
  O2-  O16  1  0.56766700  0.05299300  0.25418600  1.0
  O2-  O16  1  0.56766700  0.05299300  0.58751933  1.0
  O2-  O16  1  0.56766700  0.05299300  0.92085267  1.0
  O2-  O16  1  0.56766700  0.38632633  0.25418600  1.0
  O2-  O16  1  0.56766700  0.38632633  0.58751933  1.0
  O2-  O16  1  0.56766700  0.38632633  0.92085267  1.0
  O2-  O16  1  0.56766700  0.71965967  0.25418600  1.0
  O2-  O16  1  0.56766700  0.71965967  0.58751933  1.0
  O2-  O16  1  0.56766700  0.71965967  0.92085267  1.0
  O2-  O16  1  0.76766700  0.05299300  0.25418600  1.0
  O2-  O16  1  0.76766700  0.05299300  0.58751933  1.0
  O2-  O16  1  0.76766700  0.05299300  0.92085267  1.0
  O2-  O16  1  0.76766700  0.38632633  0.25418600  1.0
  O2-  O16  1  0.76766700  0.38632633  0.58751933  1.0
  O2-  O16  1  0.76766700  0.38632633  0.92085267  1.0
  O2-  O16  1  0.76766700  0.71965967  0.25418600  1.0
  O2-  O16  1  0.76766700  0.71965967  0.58751933  1.0
  O2-  O16  1  0.76766700  0.71965967  0.92085267  1.0
  O2-  O16  1  0.96766700  0.05299300  0.25418600  1.0
  O2-  O16  1  0.96766700  0.05299300  0.58751933  1.0
  O2-  O16  1  0.96766700  0.05299300  0.92085267  1.0
  O2-  O16  1  0.96766700  0.38632633  0.25418600  1.0
  O2-  O16  1  0.96766700  0.38632633  0.58751933  1.0
  O2-  O16  1  0.96766700  0.38632633  0.92085267  1.0
  O2-  O16  1  0.96766700  0.71965967  0.25418600  1.0
  O2-  O16  1  0.96766700  0.71965967  0.58751933  1.0
  O2-  O16  1  0.96766700  0.71965967  0.92085267  1.0
  O2-  O17  1  0.06766700  0.11367367  0.25418600  1.0
  O2-  O17  1  0.06766700  0.11367367  0.58751933  1.0
  O2-  O17  1  0.06766700  0.11367367  0.92085267  1.0
  O2-  O17  1  0.06766700  0.44700700  0.25418600  1.0
  O2-  O17  1  0.06766700  0.44700700  0.58751933  1.0
  O2-  O17  1  0.06766700  0.44700700  0.92085267  1.0
  O2-  O17  1  0.06766700  0.78034033  0.25418600  1.0
  O2-  O17  1  0.06766700  0.78034033  0.58751933  1.0
  O2-  O17  1  0.06766700  0.78034033  0.92085267  1.0
  O2-  O17  1  0.26766700  0.11367367  0.25418600  1.0
  O2-  O17  1  0.26766700  0.11367367  0.58751933  1.0
  O2-  O17  1  0.26766700  0.11367367  0.92085267  1.0
  O2-  O17  1  0.26766700  0.44700700  0.25418600  1.0
  O2-  O17  1  0.26766700  0.44700700  0.58751933  1.0
  O2-  O17  1  0.26766700  0.44700700  0.92085267  1.0
  O2-  O17  1  0.26766700  0.78034033  0.25418600  1.0
  O2-  O17  1  0.26766700  0.78034033  0.58751933  1.0
  O2-  O17  1  0.26766700  0.78034033  0.92085267  1.0
  O2-  O17  1  0.46766700  0.11367367  0.25418600  1.0
  O2-  O17  1  0.46766700  0.11367367  0.58751933  1.0
  O2-  O17  1  0.46766700  0.11367367  0.92085267  1.0
  O2-  O17  1  0.46766700  0.44700700  0.25418600  1.0
  O2-  O17  1  0.46766700  0.44700700  0.58751933  1.0
  O2-  O17  1  0.46766700  0.44700700  0.92085267  1.0
  O2-  O17  1  0.46766700  0.78034033  0.25418600  1.0
  O2-  O17  1  0.46766700  0.78034033  0.58751933  1.0
  O2-  O17  1  0.46766700  0.78034033  0.92085267  1.0
  O2-  O17  1  0.66766700  0.11367367  0.25418600  1.0
  O2-  O17  1  0.66766700  0.11367367  0.58751933  1.0
  O2-  O17  1  0.66766700  0.11367367  0.92085267  1.0
  O2-  O17  1  0.66766700  0.44700700  0.25418600  1.0
  O2-  O17  1  0.66766700  0.44700700  0.58751933  1.0
  O2-  O17  1  0.66766700  0.44700700  0.92085267  1.0
  O2-  O17  1  0.66766700  0.78034033  0.25418600  1.0
  O2-  O17  1  0.66766700  0.78034033  0.58751933  1.0
  O2-  O17  1  0.66766700  0.78034033  0.92085267  1.0
  O2-  O17  1  0.86766700  0.11367367  0.25418600  1.0
  O2-  O17  1  0.86766700  0.11367367  0.58751933  1.0
  O2-  O17  1  0.86766700  0.11367367  0.92085267  1.0
  O2-  O17  1  0.86766700  0.44700700  0.25418600  1.0
  O2-  O17  1  0.86766700  0.44700700  0.58751933  1.0
  O2-  O17  1  0.86766700  0.44700700  0.92085267  1.0
  O2-  O17  1  0.86766700  0.78034033  0.25418600  1.0
  O2-  O17  1  0.86766700  0.78034033  0.58751933  1.0
  O2-  O17  1  0.86766700  0.78034033  0.92085267  1.0
  O2-  O18  1  0.03233300  0.28034033  0.08751933  1.0
  O2-  O18  1  0.03233300  0.28034033  0.42085267  1.0
  O2-  O18  1  0.03233300  0.28034033  0.75418600  1.0
  O2-  O18  1  0.03233300  0.61367367  0.08751933  1.0
  O2-  O18  1  0.03233300  0.61367367  0.42085267  1.0
  O2-  O18  1  0.03233300  0.61367367  0.75418600  1.0
  O2-  O18  1  0.03233300  0.94700700  0.08751933  1.0
  O2-  O18  1  0.03233300  0.94700700  0.42085267  1.0
  O2-  O18  1  0.03233300  0.94700700  0.75418600  1.0
  O2-  O18  1  0.23233300  0.28034033  0.08751933  1.0
  O2-  O18  1  0.23233300  0.28034033  0.42085267  1.0
  O2-  O18  1  0.23233300  0.28034033  0.75418600  1.0
  O2-  O18  1  0.23233300  0.61367367  0.08751933  1.0
  O2-  O18  1  0.23233300  0.61367367  0.42085267  1.0
  O2-  O18  1  0.23233300  0.61367367  0.75418600  1.0
  O2-  O18  1  0.23233300  0.94700700  0.08751933  1.0
  O2-  O18  1  0.23233300  0.94700700  0.42085267  1.0
  O2-  O18  1  0.23233300  0.94700700  0.75418600  1.0
  O2-  O18  1  0.43233300  0.28034033  0.08751933  1.0
  O2-  O18  1  0.43233300  0.28034033  0.42085267  1.0
  O2-  O18  1  0.43233300  0.28034033  0.75418600  1.0
  O2-  O18  1  0.43233300  0.61367367  0.08751933  1.0
  O2-  O18  1  0.43233300  0.61367367  0.42085267  1.0
  O2-  O18  1  0.43233300  0.61367367  0.75418600  1.0
  O2-  O18  1  0.43233300  0.94700700  0.08751933  1.0
  O2-  O18  1  0.43233300  0.94700700  0.42085267  1.0
  O2-  O18  1  0.43233300  0.94700700  0.75418600  1.0
  O2-  O18  1  0.63233300  0.28034033  0.08751933  1.0
  O2-  O18  1  0.63233300  0.28034033  0.42085267  1.0
  O2-  O18  1  0.63233300  0.28034033  0.75418600  1.0
  O2-  O18  1  0.63233300  0.61367367  0.08751933  1.0
  O2-  O18  1  0.63233300  0.61367367  0.42085267  1.0
  O2-  O18  1  0.63233300  0.61367367  0.75418600  1.0
  O2-  O18  1  0.63233300  0.94700700  0.08751933  1.0
  O2-  O18  1  0.63233300  0.94700700  0.42085267  1.0
  O2-  O18  1  0.63233300  0.94700700  0.75418600  1.0
  O2-  O18  1  0.83233300  0.28034033  0.08751933  1.0
  O2-  O18  1  0.83233300  0.28034033  0.42085267  1.0
  O2-  O18  1  0.83233300  0.28034033  0.75418600  1.0
  O2-  O18  1  0.83233300  0.61367367  0.08751933  1.0
  O2-  O18  1  0.83233300  0.61367367  0.42085267  1.0
  O2-  O18  1  0.83233300  0.61367367  0.75418600  1.0
  O2-  O18  1  0.83233300  0.94700700  0.08751933  1.0
  O2-  O18  1  0.83233300  0.94700700  0.42085267  1.0
  O2-  O18  1  0.83233300  0.94700700  0.75418600  1.0
  O2-  O19  1  0.13233300  0.21965967  0.08751933  1.0
  O2-  O19  1  0.13233300  0.21965967  0.42085267  1.0
  O2-  O19  1  0.13233300  0.21965967  0.75418600  1.0
  O2-  O19  1  0.13233300  0.55299300  0.08751933  1.0
  O2-  O19  1  0.13233300  0.55299300  0.42085267  1.0
  O2-  O19  1  0.13233300  0.55299300  0.75418600  1.0
  O2-  O19  1  0.13233300  0.88632633  0.08751933  1.0
  O2-  O19  1  0.13233300  0.88632633  0.42085267  1.0
  O2-  O19  1  0.13233300  0.88632633  0.75418600  1.0
  O2-  O19  1  0.33233300  0.21965967  0.08751933  1.0
  O2-  O19  1  0.33233300  0.21965967  0.42085267  1.0
  O2-  O19  1  0.33233300  0.21965967  0.75418600  1.0
  O2-  O19  1  0.33233300  0.55299300  0.08751933  1.0
  O2-  O19  1  0.33233300  0.55299300  0.42085267  1.0
  O2-  O19  1  0.33233300  0.55299300  0.75418600  1.0
  O2-  O19  1  0.33233300  0.88632633  0.08751933  1.0
  O2-  O19  1  0.33233300  0.88632633  0.42085267  1.0
  O2-  O19  1  0.33233300  0.88632633  0.75418600  1.0
  O2-  O19  1  0.53233300  0.21965967  0.08751933  1.0
  O2-  O19  1  0.53233300  0.21965967  0.42085267  1.0
  O2-  O19  1  0.53233300  0.21965967  0.75418600  1.0
  O2-  O19  1  0.53233300  0.55299300  0.08751933  1.0
  O2-  O19  1  0.53233300  0.55299300  0.42085267  1.0
  O2-  O19  1  0.53233300  0.55299300  0.75418600  1.0
  O2-  O19  1  0.53233300  0.88632633  0.08751933  1.0
  O2-  O19  1  0.53233300  0.88632633  0.42085267  1.0
  O2-  O19  1  0.53233300  0.88632633  0.75418600  1.0
  O2-  O19  1  0.73233300  0.21965967  0.08751933  1.0
  O2-  O19  1  0.73233300  0.21965967  0.42085267  1.0
  O2-  O19  1  0.73233300  0.21965967  0.75418600  1.0
  O2-  O19  1  0.73233300  0.55299300  0.08751933  1.0
  O2-  O19  1  0.73233300  0.55299300  0.42085267  1.0
  O2-  O19  1  0.73233300  0.55299300  0.75418600  1.0
  O2-  O19  1  0.73233300  0.88632633  0.08751933  1.0
  O2-  O19  1  0.73233300  0.88632633  0.42085267  1.0
  O2-  O19  1  0.73233300  0.88632633  0.75418600  1.0
  O2-  O19  1  0.93233300  0.21965967  0.08751933  1.0
  O2-  O19  1  0.93233300  0.21965967  0.42085267  1.0
  O2-  O19  1  0.93233300  0.21965967  0.75418600  1.0
  O2-  O19  1  0.93233300  0.55299300  0.08751933  1.0
  O2-  O19  1  0.93233300  0.55299300  0.42085267  1.0
  O2-  O19  1  0.93233300  0.55299300  0.75418600  1.0
  O2-  O19  1  0.93233300  0.88632633  0.08751933  1.0
  O2-  O19  1  0.93233300  0.88632633  0.42085267  1.0
  O2-  O19  1  0.93233300  0.88632633  0.75418600  1.0
  O2-  O20  1  0.13075880  0.11020133  0.07800600  1.0
  O2-  O20  1  0.13075880  0.11020133  0.41133933  1.0
  O2-  O20  1  0.13075880  0.11020133  0.74467267  1.0
  O2-  O20  1  0.13075880  0.44353467  0.07800600  1.0
  O2-  O20  1  0.13075880  0.44353467  0.41133933  1.0
  O2-  O20  1  0.13075880  0.44353467  0.74467267  1.0
  O2-  O20  1  0.13075880  0.77686800  0.07800600  1.0
  O2-  O20  1  0.13075880  0.77686800  0.41133933  1.0
  O2-  O20  1  0.13075880  0.77686800  0.74467267  1.0
  O2-  O20  1  0.33075880  0.11020133  0.07800600  1.0
  O2-  O20  1  0.33075880  0.11020133  0.41133933  1.0
  O2-  O20  1  0.33075880  0.11020133  0.74467267  1.0
  O2-  O20  1  0.33075880  0.44353467  0.07800600  1.0
  O2-  O20  1  0.33075880  0.44353467  0.41133933  1.0
  O2-  O20  1  0.33075880  0.44353467  0.74467267  1.0
  O2-  O20  1  0.33075880  0.77686800  0.07800600  1.0
  O2-  O20  1  0.33075880  0.77686800  0.41133933  1.0
  O2-  O20  1  0.33075880  0.77686800  0.74467267  1.0
  O2-  O20  1  0.53075880  0.11020133  0.07800600  1.0
  O2-  O20  1  0.53075880  0.11020133  0.41133933  1.0
  O2-  O20  1  0.53075880  0.11020133  0.74467267  1.0
  O2-  O20  1  0.53075880  0.44353467  0.07800600  1.0
  O2-  O20  1  0.53075880  0.44353467  0.41133933  1.0
  O2-  O20  1  0.53075880  0.44353467  0.74467267  1.0
  O2-  O20  1  0.53075880  0.77686800  0.07800600  1.0
  O2-  O20  1  0.53075880  0.77686800  0.41133933  1.0
  O2-  O20  1  0.53075880  0.77686800  0.74467267  1.0
  O2-  O20  1  0.73075880  0.11020133  0.07800600  1.0
  O2-  O20  1  0.73075880  0.11020133  0.41133933  1.0
  O2-  O20  1  0.73075880  0.11020133  0.74467267  1.0
  O2-  O20  1  0.73075880  0.44353467  0.07800600  1.0
  O2-  O20  1  0.73075880  0.44353467  0.41133933  1.0
  O2-  O20  1  0.73075880  0.44353467  0.74467267  1.0
  O2-  O20  1  0.73075880  0.77686800  0.07800600  1.0
  O2-  O20  1  0.73075880  0.77686800  0.41133933  1.0
  O2-  O20  1  0.73075880  0.77686800  0.74467267  1.0
  O2-  O20  1  0.93075880  0.11020133  0.07800600  1.0
  O2-  O20  1  0.93075880  0.11020133  0.41133933  1.0
  O2-  O20  1  0.93075880  0.11020133  0.74467267  1.0
  O2-  O20  1  0.93075880  0.44353467  0.07800600  1.0
  O2-  O20  1  0.93075880  0.44353467  0.41133933  1.0
  O2-  O20  1  0.93075880  0.44353467  0.74467267  1.0
  O2-  O20  1  0.93075880  0.77686800  0.07800600  1.0
  O2-  O20  1  0.93075880  0.77686800  0.41133933  1.0
  O2-  O20  1  0.93075880  0.77686800  0.74467267  1.0
  O2-  O21  1  0.06924120  0.22313200  0.24467267  1.0
  O2-  O21  1  0.06924120  0.22313200  0.57800600  1.0
  O2-  O21  1  0.06924120  0.22313200  0.91133933  1.0
  O2-  O21  1  0.06924120  0.55646533  0.24467267  1.0
  O2-  O21  1  0.06924120  0.55646533  0.57800600  1.0
  O2-  O21  1  0.06924120  0.55646533  0.91133933  1.0
  O2-  O21  1  0.06924120  0.88979867  0.24467267  1.0
  O2-  O21  1  0.06924120  0.88979867  0.57800600  1.0
  O2-  O21  1  0.06924120  0.88979867  0.91133933  1.0
  O2-  O21  1  0.26924120  0.22313200  0.24467267  1.0
  O2-  O21  1  0.26924120  0.22313200  0.57800600  1.0
  O2-  O21  1  0.26924120  0.22313200  0.91133933  1.0
  O2-  O21  1  0.26924120  0.55646533  0.24467267  1.0
  O2-  O21  1  0.26924120  0.55646533  0.57800600  1.0
  O2-  O21  1  0.26924120  0.55646533  0.91133933  1.0
  O2-  O21  1  0.26924120  0.88979867  0.24467267  1.0
  O2-  O21  1  0.26924120  0.88979867  0.57800600  1.0
  O2-  O21  1  0.26924120  0.88979867  0.91133933  1.0
  O2-  O21  1  0.46924120  0.22313200  0.24467267  1.0
  O2-  O21  1  0.46924120  0.22313200  0.57800600  1.0
  O2-  O21  1  0.46924120  0.22313200  0.91133933  1.0
  O2-  O21  1  0.46924120  0.55646533  0.24467267  1.0
  O2-  O21  1  0.46924120  0.55646533  0.57800600  1.0
  O2-  O21  1  0.46924120  0.55646533  0.91133933  1.0
  O2-  O21  1  0.46924120  0.88979867  0.24467267  1.0
  O2-  O21  1  0.46924120  0.88979867  0.57800600  1.0
  O2-  O21  1  0.46924120  0.88979867  0.91133933  1.0
  O2-  O21  1  0.66924120  0.22313200  0.24467267  1.0
  O2-  O21  1  0.66924120  0.22313200  0.57800600  1.0
  O2-  O21  1  0.66924120  0.22313200  0.91133933  1.0
  O2-  O21  1  0.66924120  0.55646533  0.24467267  1.0
  O2-  O21  1  0.66924120  0.55646533  0.57800600  1.0
  O2-  O21  1  0.66924120  0.55646533  0.91133933  1.0
  O2-  O21  1  0.66924120  0.88979867  0.24467267  1.0
  O2-  O21  1  0.66924120  0.88979867  0.57800600  1.0
  O2-  O21  1  0.66924120  0.88979867  0.91133933  1.0
  O2-  O21  1  0.86924120  0.22313200  0.24467267  1.0
  O2-  O21  1  0.86924120  0.22313200  0.57800600  1.0
  O2-  O21  1  0.86924120  0.22313200  0.91133933  1.0
  O2-  O21  1  0.86924120  0.55646533  0.24467267  1.0
  O2-  O21  1  0.86924120  0.55646533  0.57800600  1.0
  O2-  O21  1  0.86924120  0.55646533  0.91133933  1.0
  O2-  O21  1  0.86924120  0.88979867  0.24467267  1.0
  O2-  O21  1  0.86924120  0.88979867  0.57800600  1.0
  O2-  O21  1  0.86924120  0.88979867  0.91133933  1.0
  O2-  O22  1  0.03075880  0.05646533  0.07800600  1.0
  O2-  O22  1  0.03075880  0.05646533  0.41133933  1.0
  O2-  O22  1  0.03075880  0.05646533  0.74467267  1.0
  O2-  O22  1  0.03075880  0.38979867  0.07800600  1.0
  O2-  O22  1  0.03075880  0.38979867  0.41133933  1.0
  O2-  O22  1  0.03075880  0.38979867  0.74467267  1.0
  O2-  O22  1  0.03075880  0.72313200  0.07800600  1.0
  O2-  O22  1  0.03075880  0.72313200  0.41133933  1.0
  O2-  O22  1  0.03075880  0.72313200  0.74467267  1.0
  O2-  O22  1  0.23075880  0.05646533  0.07800600  1.0
  O2-  O22  1  0.23075880  0.05646533  0.41133933  1.0
  O2-  O22  1  0.23075880  0.05646533  0.74467267  1.0
  O2-  O22  1  0.23075880  0.38979867  0.07800600  1.0
  O2-  O22  1  0.23075880  0.38979867  0.41133933  1.0
  O2-  O22  1  0.23075880  0.38979867  0.74467267  1.0
  O2-  O22  1  0.23075880  0.72313200  0.07800600  1.0
  O2-  O22  1  0.23075880  0.72313200  0.41133933  1.0
  O2-  O22  1  0.23075880  0.72313200  0.74467267  1.0
  O2-  O22  1  0.43075880  0.05646533  0.07800600  1.0
  O2-  O22  1  0.43075880  0.05646533  0.41133933  1.0
  O2-  O22  1  0.43075880  0.05646533  0.74467267  1.0
  O2-  O22  1  0.43075880  0.38979867  0.07800600  1.0
  O2-  O22  1  0.43075880  0.38979867  0.41133933  1.0
  O2-  O22  1  0.43075880  0.38979867  0.74467267  1.0
  O2-  O22  1  0.43075880  0.72313200  0.07800600  1.0
  O2-  O22  1  0.43075880  0.72313200  0.41133933  1.0
  O2-  O22  1  0.43075880  0.72313200  0.74467267  1.0
  O2-  O22  1  0.63075880  0.05646533  0.07800600  1.0
  O2-  O22  1  0.63075880  0.05646533  0.41133933  1.0
  O2-  O22  1  0.63075880  0.05646533  0.74467267  1.0
  O2-  O22  1  0.63075880  0.38979867  0.07800600  1.0
  O2-  O22  1  0.63075880  0.38979867  0.41133933  1.0
  O2-  O22  1  0.63075880  0.38979867  0.74467267  1.0
  O2-  O22  1  0.63075880  0.72313200  0.07800600  1.0
  O2-  O22  1  0.63075880  0.72313200  0.41133933  1.0
  O2-  O22  1  0.63075880  0.72313200  0.74467267  1.0
  O2-  O22  1  0.83075880  0.05646533  0.07800600  1.0
  O2-  O22  1  0.83075880  0.05646533  0.41133933  1.0
  O2-  O22  1  0.83075880  0.05646533  0.74467267  1.0
  O2-  O22  1  0.83075880  0.38979867  0.07800600  1.0
  O2-  O22  1  0.83075880  0.38979867  0.41133933  1.0
  O2-  O22  1  0.83075880  0.38979867  0.74467267  1.0
  O2-  O22  1  0.83075880  0.72313200  0.07800600  1.0
  O2-  O22  1  0.83075880  0.72313200  0.41133933  1.0
  O2-  O22  1  0.83075880  0.72313200  0.74467267  1.0
  O2-  O23  1  0.16924120  0.27686800  0.24467267  1.0
  O2-  O23  1  0.16924120  0.27686800  0.57800600  1.0
  O2-  O23  1  0.16924120  0.27686800  0.91133933  1.0
  O2-  O23  1  0.16924120  0.61020133  0.24467267  1.0
  O2-  O23  1  0.16924120  0.61020133  0.57800600  1.0
  O2-  O23  1  0.16924120  0.61020133  0.91133933  1.0
  O2-  O23  1  0.16924120  0.94353467  0.24467267  1.0
  O2-  O23  1  0.16924120  0.94353467  0.57800600  1.0
  O2-  O23  1  0.16924120  0.94353467  0.91133933  1.0
  O2-  O23  1  0.36924120  0.27686800  0.24467267  1.0
  O2-  O23  1  0.36924120  0.27686800  0.57800600  1.0
  O2-  O23  1  0.36924120  0.27686800  0.91133933  1.0
  O2-  O23  1  0.36924120  0.61020133  0.24467267  1.0
  O2-  O23  1  0.36924120  0.61020133  0.57800600  1.0
  O2-  O23  1  0.36924120  0.61020133  0.91133933  1.0
  O2-  O23  1  0.36924120  0.94353467  0.24467267  1.0
  O2-  O23  1  0.36924120  0.94353467  0.57800600  1.0
  O2-  O23  1  0.36924120  0.94353467  0.91133933  1.0
  O2-  O23  1  0.56924120  0.27686800  0.24467267  1.0
  O2-  O23  1  0.56924120  0.27686800  0.57800600  1.0
  O2-  O23  1  0.56924120  0.27686800  0.91133933  1.0
  O2-  O23  1  0.56924120  0.61020133  0.24467267  1.0
  O2-  O23  1  0.56924120  0.61020133  0.57800600  1.0
  O2-  O23  1  0.56924120  0.61020133  0.91133933  1.0
  O2-  O23  1  0.56924120  0.94353467  0.24467267  1.0
  O2-  O23  1  0.56924120  0.94353467  0.57800600  1.0
  O2-  O23  1  0.56924120  0.94353467  0.91133933  1.0
  O2-  O23  1  0.76924120  0.27686800  0.24467267  1.0
  O2-  O23  1  0.76924120  0.27686800  0.57800600  1.0
  O2-  O23  1  0.76924120  0.27686800  0.91133933  1.0
  O2-  O23  1  0.76924120  0.61020133  0.24467267  1.0
  O2-  O23  1  0.76924120  0.61020133  0.57800600  1.0
  O2-  O23  1  0.76924120  0.61020133  0.91133933  1.0
  O2-  O23  1  0.76924120  0.94353467  0.24467267  1.0
  O2-  O23  1  0.76924120  0.94353467  0.57800600  1.0
  O2-  O23  1  0.76924120  0.94353467  0.91133933  1.0
  O2-  O23  1  0.96924120  0.27686800  0.24467267  1.0
  O2-  O23  1  0.96924120  0.27686800  0.57800600  1.0
  O2-  O23  1  0.96924120  0.27686800  0.91133933  1.0
  O2-  O23  1  0.96924120  0.61020133  0.24467267  1.0
  O2-  O23  1  0.96924120  0.61020133  0.57800600  1.0
  O2-  O23  1  0.96924120  0.61020133  0.91133933  1.0
  O2-  O23  1  0.96924120  0.94353467  0.24467267  1.0
  O2-  O23  1  0.96924120  0.94353467  0.57800600  1.0
  O2-  O23  1  0.96924120  0.94353467  0.91133933  1.0
  O2-  O24  1  0.03183400  0.16674633  0.08880100  1.0
  O2-  O24  1  0.03183400  0.16674633  0.42213433  1.0
  O2-  O24  1  0.03183400  0.16674633  0.75546767  1.0
  O2-  O24  1  0.03183400  0.50007967  0.08880100  1.0
  O2-  O24  1  0.03183400  0.50007967  0.42213433  1.0
  O2-  O24  1  0.03183400  0.50007967  0.75546767  1.0
  O2-  O24  1  0.03183400  0.83341300  0.08880100  1.0
  O2-  O24  1  0.03183400  0.83341300  0.42213433  1.0
  O2-  O24  1  0.03183400  0.83341300  0.75546767  1.0
  O2-  O24  1  0.23183400  0.16674633  0.08880100  1.0
  O2-  O24  1  0.23183400  0.16674633  0.42213433  1.0
  O2-  O24  1  0.23183400  0.16674633  0.75546767  1.0
  O2-  O24  1  0.23183400  0.50007967  0.08880100  1.0
  O2-  O24  1  0.23183400  0.50007967  0.42213433  1.0
  O2-  O24  1  0.23183400  0.50007967  0.75546767  1.0
  O2-  O24  1  0.23183400  0.83341300  0.08880100  1.0
  O2-  O24  1  0.23183400  0.83341300  0.42213433  1.0
  O2-  O24  1  0.23183400  0.83341300  0.75546767  1.0
  O2-  O24  1  0.43183400  0.16674633  0.08880100  1.0
  O2-  O24  1  0.43183400  0.16674633  0.42213433  1.0
  O2-  O24  1  0.43183400  0.16674633  0.75546767  1.0
  O2-  O24  1  0.43183400  0.50007967  0.08880100  1.0
  O2-  O24  1  0.43183400  0.50007967  0.42213433  1.0
  O2-  O24  1  0.43183400  0.50007967  0.75546767  1.0
  O2-  O24  1  0.43183400  0.83341300  0.08880100  1.0
  O2-  O24  1  0.43183400  0.83341300  0.42213433  1.0
  O2-  O24  1  0.43183400  0.83341300  0.75546767  1.0
  O2-  O24  1  0.63183400  0.16674633  0.08880100  1.0
  O2-  O24  1  0.63183400  0.16674633  0.42213433  1.0
  O2-  O24  1  0.63183400  0.16674633  0.75546767  1.0
  O2-  O24  1  0.63183400  0.50007967  0.08880100  1.0
  O2-  O24  1  0.63183400  0.50007967  0.42213433  1.0
  O2-  O24  1  0.63183400  0.50007967  0.75546767  1.0
  O2-  O24  1  0.63183400  0.83341300  0.08880100  1.0
  O2-  O24  1  0.63183400  0.83341300  0.42213433  1.0
  O2-  O24  1  0.63183400  0.83341300  0.75546767  1.0
  O2-  O24  1  0.83183400  0.16674633  0.08880100  1.0
  O2-  O24  1  0.83183400  0.16674633  0.42213433  1.0
  O2-  O24  1  0.83183400  0.16674633  0.75546767  1.0
  O2-  O24  1  0.83183400  0.50007967  0.08880100  1.0
  O2-  O24  1  0.83183400  0.50007967  0.42213433  1.0
  O2-  O24  1  0.83183400  0.50007967  0.75546767  1.0
  O2-  O24  1  0.83183400  0.83341300  0.08880100  1.0
  O2-  O24  1  0.83183400  0.83341300  0.42213433  1.0
  O2-  O24  1  0.83183400  0.83341300  0.75546767  1.0
  O2-  O25  1  0.06816600  0.00007967  0.25546767  1.0
  O2-  O25  1  0.06816600  0.00007967  0.58880100  1.0
  O2-  O25  1  0.06816600  0.00007967  0.92213433  1.0
  O2-  O25  1  0.06816600  0.33341300  0.25546767  1.0
  O2-  O25  1  0.06816600  0.33341300  0.58880100  1.0
  O2-  O25  1  0.06816600  0.33341300  0.92213433  1.0
  O2-  O25  1  0.06816600  0.66674633  0.25546767  1.0
  O2-  O25  1  0.06816600  0.66674633  0.58880100  1.0
  O2-  O25  1  0.06816600  0.66674633  0.92213433  1.0
  O2-  O25  1  0.26816600  0.00007967  0.25546767  1.0
  O2-  O25  1  0.26816600  0.00007967  0.58880100  1.0
  O2-  O25  1  0.26816600  0.00007967  0.92213433  1.0
  O2-  O25  1  0.26816600  0.33341300  0.25546767  1.0
  O2-  O25  1  0.26816600  0.33341300  0.58880100  1.0
  O2-  O25  1  0.26816600  0.33341300  0.92213433  1.0
  O2-  O25  1  0.26816600  0.66674633  0.25546767  1.0
  O2-  O25  1  0.26816600  0.66674633  0.58880100  1.0
  O2-  O25  1  0.26816600  0.66674633  0.92213433  1.0
  O2-  O25  1  0.46816600  0.00007967  0.25546767  1.0
  O2-  O25  1  0.46816600  0.00007967  0.58880100  1.0
  O2-  O25  1  0.46816600  0.00007967  0.92213433  1.0
  O2-  O25  1  0.46816600  0.33341300  0.25546767  1.0
  O2-  O25  1  0.46816600  0.33341300  0.58880100  1.0
  O2-  O25  1  0.46816600  0.33341300  0.92213433  1.0
  O2-  O25  1  0.46816600  0.66674633  0.25546767  1.0
  O2-  O25  1  0.46816600  0.66674633  0.58880100  1.0
  O2-  O25  1  0.46816600  0.66674633  0.92213433  1.0
  O2-  O25  1  0.66816600  0.00007967  0.25546767  1.0
  O2-  O25  1  0.66816600  0.00007967  0.58880100  1.0
  O2-  O25  1  0.66816600  0.00007967  0.92213433  1.0
  O2-  O25  1  0.66816600  0.33341300  0.25546767  1.0
  O2-  O25  1  0.66816600  0.33341300  0.58880100  1.0
  O2-  O25  1  0.66816600  0.33341300  0.92213433  1.0
  O2-  O25  1  0.66816600  0.66674633  0.25546767  1.0
  O2-  O25  1  0.66816600  0.66674633  0.58880100  1.0
  O2-  O25  1  0.66816600  0.66674633  0.92213433  1.0
  O2-  O25  1  0.86816600  0.00007967  0.25546767  1.0
  O2-  O25  1  0.86816600  0.00007967  0.58880100  1.0
  O2-  O25  1  0.86816600  0.00007967  0.92213433  1.0
  O2-  O25  1  0.86816600  0.33341300  0.25546767  1.0
  O2-  O25  1  0.86816600  0.33341300  0.58880100  1.0
  O2-  O25  1  0.86816600  0.33341300  0.92213433  1.0
  O2-  O25  1  0.86816600  0.66674633  0.25546767  1.0
  O2-  O25  1  0.86816600  0.66674633  0.58880100  1.0
  O2-  O25  1  0.86816600  0.66674633  0.92213433  1.0
  O2-  O26  1  0.13183400  0.33325367  0.08880100  1.0
  O2-  O26  1  0.13183400  0.33325367  0.42213433  1.0
  O2-  O26  1  0.13183400  0.33325367  0.75546767  1.0
  O2-  O26  1  0.13183400  0.66658700  0.08880100  1.0
  O2-  O26  1  0.13183400  0.66658700  0.42213433  1.0
  O2-  O26  1  0.13183400  0.66658700  0.75546767  1.0
  O2-  O26  1  0.13183400  0.99992033  0.08880100  1.0
  O2-  O26  1  0.13183400  0.99992033  0.42213433  1.0
  O2-  O26  1  0.13183400  0.99992033  0.75546767  1.0
  O2-  O26  1  0.33183400  0.33325367  0.08880100  1.0
  O2-  O26  1  0.33183400  0.33325367  0.42213433  1.0
  O2-  O26  1  0.33183400  0.33325367  0.75546767  1.0
  O2-  O26  1  0.33183400  0.66658700  0.08880100  1.0
  O2-  O26  1  0.33183400  0.66658700  0.42213433  1.0
  O2-  O26  1  0.33183400  0.66658700  0.75546767  1.0
  O2-  O26  1  0.33183400  0.99992033  0.08880100  1.0
  O2-  O26  1  0.33183400  0.99992033  0.42213433  1.0
  O2-  O26  1  0.33183400  0.99992033  0.75546767  1.0
  O2-  O26  1  0.53183400  0.33325367  0.08880100  1.0
  O2-  O26  1  0.53183400  0.33325367  0.42213433  1.0
  O2-  O26  1  0.53183400  0.33325367  0.75546767  1.0
  O2-  O26  1  0.53183400  0.66658700  0.08880100  1.0
  O2-  O26  1  0.53183400  0.66658700  0.42213433  1.0
  O2-  O26  1  0.53183400  0.66658700  0.75546767  1.0
  O2-  O26  1  0.53183400  0.99992033  0.08880100  1.0
  O2-  O26  1  0.53183400  0.99992033  0.42213433  1.0
  O2-  O26  1  0.53183400  0.99992033  0.75546767  1.0
  O2-  O26  1  0.73183400  0.33325367  0.08880100  1.0
  O2-  O26  1  0.73183400  0.33325367  0.42213433  1.0
  O2-  O26  1  0.73183400  0.33325367  0.75546767  1.0
  O2-  O26  1  0.73183400  0.66658700  0.08880100  1.0
  O2-  O26  1  0.73183400  0.66658700  0.42213433  1.0
  O2-  O26  1  0.73183400  0.66658700  0.75546767  1.0
  O2-  O26  1  0.73183400  0.99992033  0.08880100  1.0
  O2-  O26  1  0.73183400  0.99992033  0.42213433  1.0
  O2-  O26  1  0.73183400  0.99992033  0.75546767  1.0
  O2-  O26  1  0.93183400  0.33325367  0.08880100  1.0
  O2-  O26  1  0.93183400  0.33325367  0.42213433  1.0
  O2-  O26  1  0.93183400  0.33325367  0.75546767  1.0
  O2-  O26  1  0.93183400  0.66658700  0.08880100  1.0
  O2-  O26  1  0.93183400  0.66658700  0.42213433  1.0
  O2-  O26  1  0.93183400  0.66658700  0.75546767  1.0
  O2-  O26  1  0.93183400  0.99992033  0.08880100  1.0
  O2-  O26  1  0.93183400  0.99992033  0.42213433  1.0
  O2-  O26  1  0.93183400  0.99992033  0.75546767  1.0
  O2-  O27  1  0.16816600  0.16658700  0.25546767  1.0
  O2-  O27  1  0.16816600  0.16658700  0.58880100  1.0
  O2-  O27  1  0.16816600  0.16658700  0.92213433  1.0
  O2-  O27  1  0.16816600  0.49992033  0.25546767  1.0
  O2-  O27  1  0.16816600  0.49992033  0.58880100  1.0
  O2-  O27  1  0.16816600  0.49992033  0.92213433  1.0
  O2-  O27  1  0.16816600  0.83325367  0.25546767  1.0
  O2-  O27  1  0.16816600  0.83325367  0.58880100  1.0
  O2-  O27  1  0.16816600  0.83325367  0.92213433  1.0
  O2-  O27  1  0.36816600  0.16658700  0.25546767  1.0
  O2-  O27  1  0.36816600  0.16658700  0.58880100  1.0
  O2-  O27  1  0.36816600  0.16658700  0.92213433  1.0
  O2-  O27  1  0.36816600  0.49992033  0.25546767  1.0
  O2-  O27  1  0.36816600  0.49992033  0.58880100  1.0
  O2-  O27  1  0.36816600  0.49992033  0.92213433  1.0
  O2-  O27  1  0.36816600  0.83325367  0.25546767  1.0
  O2-  O27  1  0.36816600  0.83325367  0.58880100  1.0
  O2-  O27  1  0.36816600  0.83325367  0.92213433  1.0
  O2-  O27  1  0.56816600  0.16658700  0.25546767  1.0
  O2-  O27  1  0.56816600  0.16658700  0.58880100  1.0
  O2-  O27  1  0.56816600  0.16658700  0.92213433  1.0
  O2-  O27  1  0.56816600  0.49992033  0.25546767  1.0
  O2-  O27  1  0.56816600  0.49992033  0.58880100  1.0
  O2-  O27  1  0.56816600  0.49992033  0.92213433  1.0
  O2-  O27  1  0.56816600  0.83325367  0.25546767  1.0
  O2-  O27  1  0.56816600  0.83325367  0.58880100  1.0
  O2-  O27  1  0.56816600  0.83325367  0.92213433  1.0
  O2-  O27  1  0.76816600  0.16658700  0.25546767  1.0
  O2-  O27  1  0.76816600  0.16658700  0.58880100  1.0
  O2-  O27  1  0.76816600  0.16658700  0.92213433  1.0
  O2-  O27  1  0.76816600  0.49992033  0.25546767  1.0
  O2-  O27  1  0.76816600  0.49992033  0.58880100  1.0
  O2-  O27  1  0.76816600  0.49992033  0.92213433  1.0
  O2-  O27  1  0.76816600  0.83325367  0.25546767  1.0
  O2-  O27  1  0.76816600  0.83325367  0.58880100  1.0
  O2-  O27  1  0.76816600  0.83325367  0.92213433  1.0
  O2-  O27  1  0.96816600  0.16658700  0.25546767  1.0
  O2-  O27  1  0.96816600  0.16658700  0.58880100  1.0
  O2-  O27  1  0.96816600  0.16658700  0.92213433  1.0
  O2-  O27  1  0.96816600  0.49992033  0.25546767  1.0
  O2-  O27  1  0.96816600  0.49992033  0.58880100  1.0
  O2-  O27  1  0.96816600  0.49992033  0.92213433  1.0
  O2-  O27  1  0.96816600  0.83325367  0.25546767  1.0
  O2-  O27  1  0.96816600  0.83325367  0.58880100  1.0
  O2-  O27  1  0.96816600  0.83325367  0.92213433  1.0
  O2-  O28  1  0.19643560  0.22556367  0.16392933  1.0
  O2-  O28  1  0.19643560  0.22556367  0.49726267  1.0
  O2-  O28  1  0.19643560  0.22556367  0.83059600  1.0
  O2-  O28  1  0.19643560  0.55889700  0.16392933  1.0
  O2-  O28  1  0.19643560  0.55889700  0.49726267  1.0
  O2-  O28  1  0.19643560  0.55889700  0.83059600  1.0
  O2-  O28  1  0.19643560  0.89223033  0.16392933  1.0
  O2-  O28  1  0.19643560  0.89223033  0.49726267  1.0
  O2-  O28  1  0.19643560  0.89223033  0.83059600  1.0
  O2-  O28  1  0.39643560  0.22556367  0.16392933  1.0
  O2-  O28  1  0.39643560  0.22556367  0.49726267  1.0
  O2-  O28  1  0.39643560  0.22556367  0.83059600  1.0
  O2-  O28  1  0.39643560  0.55889700  0.16392933  1.0
  O2-  O28  1  0.39643560  0.55889700  0.49726267  1.0
  O2-  O28  1  0.39643560  0.55889700  0.83059600  1.0
  O2-  O28  1  0.39643560  0.89223033  0.16392933  1.0
  O2-  O28  1  0.39643560  0.89223033  0.49726267  1.0
  O2-  O28  1  0.39643560  0.89223033  0.83059600  1.0
  O2-  O28  1  0.59643560  0.22556367  0.16392933  1.0
  O2-  O28  1  0.59643560  0.22556367  0.49726267  1.0
  O2-  O28  1  0.59643560  0.22556367  0.83059600  1.0
  O2-  O28  1  0.59643560  0.55889700  0.16392933  1.0
  O2-  O28  1  0.59643560  0.55889700  0.49726267  1.0
  O2-  O28  1  0.59643560  0.55889700  0.83059600  1.0
  O2-  O28  1  0.59643560  0.89223033  0.16392933  1.0
  O2-  O28  1  0.59643560  0.89223033  0.49726267  1.0
  O2-  O28  1  0.59643560  0.89223033  0.83059600  1.0
  O2-  O28  1  0.79643560  0.22556367  0.16392933  1.0
  O2-  O28  1  0.79643560  0.22556367  0.49726267  1.0
  O2-  O28  1  0.79643560  0.22556367  0.83059600  1.0
  O2-  O28  1  0.79643560  0.55889700  0.16392933  1.0
  O2-  O28  1  0.79643560  0.55889700  0.49726267  1.0
  O2-  O28  1  0.79643560  0.55889700  0.83059600  1.0
  O2-  O28  1  0.79643560  0.89223033  0.16392933  1.0
  O2-  O28  1  0.79643560  0.89223033  0.49726267  1.0
  O2-  O28  1  0.79643560  0.89223033  0.83059600  1.0
  O2-  O28  1  0.99643560  0.22556367  0.16392933  1.0
  O2-  O28  1  0.99643560  0.22556367  0.49726267  1.0
  O2-  O28  1  0.99643560  0.22556367  0.83059600  1.0
  O2-  O28  1  0.99643560  0.55889700  0.16392933  1.0
  O2-  O28  1  0.99643560  0.55889700  0.49726267  1.0
  O2-  O28  1  0.99643560  0.55889700  0.83059600  1.0
  O2-  O28  1  0.99643560  0.89223033  0.16392933  1.0
  O2-  O28  1  0.99643560  0.89223033  0.49726267  1.0
  O2-  O28  1  0.99643560  0.89223033  0.83059600  1.0
  O2-  O29  1  0.00356440  0.10776967  0.33059600  1.0
  O2-  O29  1  0.00356440  0.10776967  0.66392933  1.0
  O2-  O29  1  0.00356440  0.10776967  0.99726267  1.0
  O2-  O29  1  0.00356440  0.44110300  0.33059600  1.0
  O2-  O29  1  0.00356440  0.44110300  0.66392933  1.0
  O2-  O29  1  0.00356440  0.44110300  0.99726267  1.0
  O2-  O29  1  0.00356440  0.77443633  0.33059600  1.0
  O2-  O29  1  0.00356440  0.77443633  0.66392933  1.0
  O2-  O29  1  0.00356440  0.77443633  0.99726267  1.0
  O2-  O29  1  0.20356440  0.10776967  0.33059600  1.0
  O2-  O29  1  0.20356440  0.10776967  0.66392933  1.0
  O2-  O29  1  0.20356440  0.10776967  0.99726267  1.0
  O2-  O29  1  0.20356440  0.44110300  0.33059600  1.0
  O2-  O29  1  0.20356440  0.44110300  0.66392933  1.0
  O2-  O29  1  0.20356440  0.44110300  0.99726267  1.0
  O2-  O29  1  0.20356440  0.77443633  0.33059600  1.0
  O2-  O29  1  0.20356440  0.77443633  0.66392933  1.0
  O2-  O29  1  0.20356440  0.77443633  0.99726267  1.0
  O2-  O29  1  0.40356440  0.10776967  0.33059600  1.0
  O2-  O29  1  0.40356440  0.10776967  0.66392933  1.0
  O2-  O29  1  0.40356440  0.10776967  0.99726267  1.0
  O2-  O29  1  0.40356440  0.44110300  0.33059600  1.0
  O2-  O29  1  0.40356440  0.44110300  0.66392933  1.0
  O2-  O29  1  0.40356440  0.44110300  0.99726267  1.0
  O2-  O29  1  0.40356440  0.77443633  0.33059600  1.0
  O2-  O29  1  0.40356440  0.77443633  0.66392933  1.0
  O2-  O29  1  0.40356440  0.77443633  0.99726267  1.0
  O2-  O29  1  0.60356440  0.10776967  0.33059600  1.0
  O2-  O29  1  0.60356440  0.10776967  0.66392933  1.0
  O2-  O29  1  0.60356440  0.10776967  0.99726267  1.0
  O2-  O29  1  0.60356440  0.44110300  0.33059600  1.0
  O2-  O29  1  0.60356440  0.44110300  0.66392933  1.0
  O2-  O29  1  0.60356440  0.44110300  0.99726267  1.0
  O2-  O29  1  0.60356440  0.77443633  0.33059600  1.0
  O2-  O29  1  0.60356440  0.77443633  0.66392933  1.0
  O2-  O29  1  0.60356440  0.77443633  0.99726267  1.0
  O2-  O29  1  0.80356440  0.10776967  0.33059600  1.0
  O2-  O29  1  0.80356440  0.10776967  0.66392933  1.0
  O2-  O29  1  0.80356440  0.10776967  0.99726267  1.0
  O2-  O29  1  0.80356440  0.44110300  0.33059600  1.0
  O2-  O29  1  0.80356440  0.44110300  0.66392933  1.0
  O2-  O29  1  0.80356440  0.44110300  0.99726267  1.0
  O2-  O29  1  0.80356440  0.77443633  0.33059600  1.0
  O2-  O29  1  0.80356440  0.77443633  0.66392933  1.0
  O2-  O29  1  0.80356440  0.77443633  0.99726267  1.0
  O2-  O30  1  0.09643560  0.27443633  0.16392933  1.0
  O2-  O30  1  0.09643560  0.27443633  0.49726267  1.0
  O2-  O30  1  0.09643560  0.27443633  0.83059600  1.0
  O2-  O30  1  0.09643560  0.60776967  0.16392933  1.0
  O2-  O30  1  0.09643560  0.60776967  0.49726267  1.0
  O2-  O30  1  0.09643560  0.60776967  0.83059600  1.0
  O2-  O30  1  0.09643560  0.94110300  0.16392933  1.0
  O2-  O30  1  0.09643560  0.94110300  0.49726267  1.0
  O2-  O30  1  0.09643560  0.94110300  0.83059600  1.0
  O2-  O30  1  0.29643560  0.27443633  0.16392933  1.0
  O2-  O30  1  0.29643560  0.27443633  0.49726267  1.0
  O2-  O30  1  0.29643560  0.27443633  0.83059600  1.0
  O2-  O30  1  0.29643560  0.60776967  0.16392933  1.0
  O2-  O30  1  0.29643560  0.60776967  0.49726267  1.0
  O2-  O30  1  0.29643560  0.60776967  0.83059600  1.0
  O2-  O30  1  0.29643560  0.94110300  0.16392933  1.0
  O2-  O30  1  0.29643560  0.94110300  0.49726267  1.0
  O2-  O30  1  0.29643560  0.94110300  0.83059600  1.0
  O2-  O30  1  0.49643560  0.27443633  0.16392933  1.0
  O2-  O30  1  0.49643560  0.27443633  0.49726267  1.0
  O2-  O30  1  0.49643560  0.27443633  0.83059600  1.0
  O2-  O30  1  0.49643560  0.60776967  0.16392933  1.0
  O2-  O30  1  0.49643560  0.60776967  0.49726267  1.0
  O2-  O30  1  0.49643560  0.60776967  0.83059600  1.0
  O2-  O30  1  0.49643560  0.94110300  0.16392933  1.0
  O2-  O30  1  0.49643560  0.94110300  0.49726267  1.0
  O2-  O30  1  0.49643560  0.94110300  0.83059600  1.0
  O2-  O30  1  0.69643560  0.27443633  0.16392933  1.0
  O2-  O30  1  0.69643560  0.27443633  0.49726267  1.0
  O2-  O30  1  0.69643560  0.27443633  0.83059600  1.0
  O2-  O30  1  0.69643560  0.60776967  0.16392933  1.0
  O2-  O30  1  0.69643560  0.60776967  0.49726267  1.0
  O2-  O30  1  0.69643560  0.60776967  0.83059600  1.0
  O2-  O30  1  0.69643560  0.94110300  0.16392933  1.0
  O2-  O30  1  0.69643560  0.94110300  0.49726267  1.0
  O2-  O30  1  0.69643560  0.94110300  0.83059600  1.0
  O2-  O30  1  0.89643560  0.27443633  0.16392933  1.0
  O2-  O30  1  0.89643560  0.27443633  0.49726267  1.0
  O2-  O30  1  0.89643560  0.27443633  0.83059600  1.0
  O2-  O30  1  0.89643560  0.60776967  0.16392933  1.0
  O2-  O30  1  0.89643560  0.60776967  0.49726267  1.0
  O2-  O30  1  0.89643560  0.60776967  0.83059600  1.0
  O2-  O30  1  0.89643560  0.94110300  0.16392933  1.0
  O2-  O30  1  0.89643560  0.94110300  0.49726267  1.0
  O2-  O30  1  0.89643560  0.94110300  0.83059600  1.0
  O2-  O31  1  0.10356440  0.05889700  0.33059600  1.0
  O2-  O31  1  0.10356440  0.05889700  0.66392933  1.0
  O2-  O31  1  0.10356440  0.05889700  0.99726267  1.0
  O2-  O31  1  0.10356440  0.39223033  0.33059600  1.0
  O2-  O31  1  0.10356440  0.39223033  0.66392933  1.0
  O2-  O31  1  0.10356440  0.39223033  0.99726267  1.0
  O2-  O31  1  0.10356440  0.72556367  0.33059600  1.0
  O2-  O31  1  0.10356440  0.72556367  0.66392933  1.0
  O2-  O31  1  0.10356440  0.72556367  0.99726267  1.0
  O2-  O31  1  0.30356440  0.05889700  0.33059600  1.0
  O2-  O31  1  0.30356440  0.05889700  0.66392933  1.0
  O2-  O31  1  0.30356440  0.05889700  0.99726267  1.0
  O2-  O31  1  0.30356440  0.39223033  0.33059600  1.0
  O2-  O31  1  0.30356440  0.39223033  0.66392933  1.0
  O2-  O31  1  0.30356440  0.39223033  0.99726267  1.0
  O2-  O31  1  0.30356440  0.72556367  0.33059600  1.0
  O2-  O31  1  0.30356440  0.72556367  0.66392933  1.0
  O2-  O31  1  0.30356440  0.72556367  0.99726267  1.0
  O2-  O31  1  0.50356440  0.05889700  0.33059600  1.0
  O2-  O31  1  0.50356440  0.05889700  0.66392933  1.0
  O2-  O31  1  0.50356440  0.05889700  0.99726267  1.0
  O2-  O31  1  0.50356440  0.39223033  0.33059600  1.0
  O2-  O31  1  0.50356440  0.39223033  0.66392933  1.0
  O2-  O31  1  0.50356440  0.39223033  0.99726267  1.0
  O2-  O31  1  0.50356440  0.72556367  0.33059600  1.0
  O2-  O31  1  0.50356440  0.72556367  0.66392933  1.0
  O2-  O31  1  0.50356440  0.72556367  0.99726267  1.0
  O2-  O31  1  0.70356440  0.05889700  0.33059600  1.0
  O2-  O31  1  0.70356440  0.05889700  0.66392933  1.0
  O2-  O31  1  0.70356440  0.05889700  0.99726267  1.0
  O2-  O31  1  0.70356440  0.39223033  0.33059600  1.0
  O2-  O31  1  0.70356440  0.39223033  0.66392933  1.0
  O2-  O31  1  0.70356440  0.39223033  0.99726267  1.0
  O2-  O31  1  0.70356440  0.72556367  0.33059600  1.0
  O2-  O31  1  0.70356440  0.72556367  0.66392933  1.0
  O2-  O31  1  0.70356440  0.72556367  0.99726267  1.0
  O2-  O31  1  0.90356440  0.05889700  0.33059600  1.0
  O2-  O31  1  0.90356440  0.05889700  0.66392933  1.0
  O2-  O31  1  0.90356440  0.05889700  0.99726267  1.0
  O2-  O31  1  0.90356440  0.39223033  0.33059600  1.0
  O2-  O31  1  0.90356440  0.39223033  0.66392933  1.0
  O2-  O31  1  0.90356440  0.39223033  0.99726267  1.0
  O2-  O31  1  0.90356440  0.72556367  0.33059600  1.0
  O2-  O31  1  0.90356440  0.72556367  0.66392933  1.0
  O2-  O31  1  0.90356440  0.72556367  0.99726267  1.0
  O2-  O32  1  0.09567640  0.05612200  0.16618933  1.0
  O2-  O32  1  0.09567640  0.05612200  0.49952267  1.0
  O2-  O32  1  0.09567640  0.05612200  0.83285600  1.0
  O2-  O32  1  0.09567640  0.38945533  0.16618933  1.0
  O2-  O32  1  0.09567640  0.38945533  0.49952267  1.0
  O2-  O32  1  0.09567640  0.38945533  0.83285600  1.0
  O2-  O32  1  0.09567640  0.72278867  0.16618933  1.0
  O2-  O32  1  0.09567640  0.72278867  0.49952267  1.0
  O2-  O32  1  0.09567640  0.72278867  0.83285600  1.0
  O2-  O32  1  0.29567640  0.05612200  0.16618933  1.0
  O2-  O32  1  0.29567640  0.05612200  0.49952267  1.0
  O2-  O32  1  0.29567640  0.05612200  0.83285600  1.0
  O2-  O32  1  0.29567640  0.38945533  0.16618933  1.0
  O2-  O32  1  0.29567640  0.38945533  0.49952267  1.0
  O2-  O32  1  0.29567640  0.38945533  0.83285600  1.0
  O2-  O32  1  0.29567640  0.72278867  0.16618933  1.0
  O2-  O32  1  0.29567640  0.72278867  0.49952267  1.0
  O2-  O32  1  0.29567640  0.72278867  0.83285600  1.0
  O2-  O32  1  0.49567640  0.05612200  0.16618933  1.0
  O2-  O32  1  0.49567640  0.05612200  0.49952267  1.0
  O2-  O32  1  0.49567640  0.05612200  0.83285600  1.0
  O2-  O32  1  0.49567640  0.38945533  0.16618933  1.0
  O2-  O32  1  0.49567640  0.38945533  0.49952267  1.0
  O2-  O32  1  0.49567640  0.38945533  0.83285600  1.0
  O2-  O32  1  0.49567640  0.72278867  0.16618933  1.0
  O2-  O32  1  0.49567640  0.72278867  0.49952267  1.0
  O2-  O32  1  0.49567640  0.72278867  0.83285600  1.0
  O2-  O32  1  0.69567640  0.05612200  0.16618933  1.0
  O2-  O32  1  0.69567640  0.05612200  0.49952267  1.0
  O2-  O32  1  0.69567640  0.05612200  0.83285600  1.0
  O2-  O32  1  0.69567640  0.38945533  0.16618933  1.0
  O2-  O32  1  0.69567640  0.38945533  0.49952267  1.0
  O2-  O32  1  0.69567640  0.38945533  0.83285600  1.0
  O2-  O32  1  0.69567640  0.72278867  0.16618933  1.0
  O2-  O32  1  0.69567640  0.72278867  0.49952267  1.0
  O2-  O32  1  0.69567640  0.72278867  0.83285600  1.0
  O2-  O32  1  0.89567640  0.05612200  0.16618933  1.0
  O2-  O32  1  0.89567640  0.05612200  0.49952267  1.0
  O2-  O32  1  0.89567640  0.05612200  0.83285600  1.0
  O2-  O32  1  0.89567640  0.38945533  0.16618933  1.0
  O2-  O32  1  0.89567640  0.38945533  0.49952267  1.0
  O2-  O32  1  0.89567640  0.38945533  0.83285600  1.0
  O2-  O32  1  0.89567640  0.72278867  0.16618933  1.0
  O2-  O32  1  0.89567640  0.72278867  0.49952267  1.0
  O2-  O32  1  0.89567640  0.72278867  0.83285600  1.0
  O2-  O33  1  0.00432360  0.22278867  0.33285600  1.0
  O2-  O33  1  0.00432360  0.22278867  0.66618933  1.0
  O2-  O33  1  0.00432360  0.22278867  0.99952267  1.0
  O2-  O33  1  0.00432360  0.55612200  0.33285600  1.0
  O2-  O33  1  0.00432360  0.55612200  0.66618933  1.0
  O2-  O33  1  0.00432360  0.55612200  0.99952267  1.0
  O2-  O33  1  0.00432360  0.88945533  0.33285600  1.0
  O2-  O33  1  0.00432360  0.88945533  0.66618933  1.0
  O2-  O33  1  0.00432360  0.88945533  0.99952267  1.0
  O2-  O33  1  0.20432360  0.22278867  0.33285600  1.0
  O2-  O33  1  0.20432360  0.22278867  0.66618933  1.0
  O2-  O33  1  0.20432360  0.22278867  0.99952267  1.0
  O2-  O33  1  0.20432360  0.55612200  0.33285600  1.0
  O2-  O33  1  0.20432360  0.55612200  0.66618933  1.0
  O2-  O33  1  0.20432360  0.55612200  0.99952267  1.0
  O2-  O33  1  0.20432360  0.88945533  0.33285600  1.0
  O2-  O33  1  0.20432360  0.88945533  0.66618933  1.0
  O2-  O33  1  0.20432360  0.88945533  0.99952267  1.0
  O2-  O33  1  0.40432360  0.22278867  0.33285600  1.0
  O2-  O33  1  0.40432360  0.22278867  0.66618933  1.0
  O2-  O33  1  0.40432360  0.22278867  0.99952267  1.0
  O2-  O33  1  0.40432360  0.55612200  0.33285600  1.0
  O2-  O33  1  0.40432360  0.55612200  0.66618933  1.0
  O2-  O33  1  0.40432360  0.55612200  0.99952267  1.0
  O2-  O33  1  0.40432360  0.88945533  0.33285600  1.0
  O2-  O33  1  0.40432360  0.88945533  0.66618933  1.0
  O2-  O33  1  0.40432360  0.88945533  0.99952267  1.0
  O2-  O33  1  0.60432360  0.22278867  0.33285600  1.0
  O2-  O33  1  0.60432360  0.22278867  0.66618933  1.0
  O2-  O33  1  0.60432360  0.22278867  0.99952267  1.0
  O2-  O33  1  0.60432360  0.55612200  0.33285600  1.0
  O2-  O33  1  0.60432360  0.55612200  0.66618933  1.0
  O2-  O33  1  0.60432360  0.55612200  0.99952267  1.0
  O2-  O33  1  0.60432360  0.88945533  0.33285600  1.0
  O2-  O33  1  0.60432360  0.88945533  0.66618933  1.0
  O2-  O33  1  0.60432360  0.88945533  0.99952267  1.0
  O2-  O33  1  0.80432360  0.22278867  0.33285600  1.0
  O2-  O33  1  0.80432360  0.22278867  0.66618933  1.0
  O2-  O33  1  0.80432360  0.22278867  0.99952267  1.0
  O2-  O33  1  0.80432360  0.55612200  0.33285600  1.0
  O2-  O33  1  0.80432360  0.55612200  0.66618933  1.0
  O2-  O33  1  0.80432360  0.55612200  0.99952267  1.0
  O2-  O33  1  0.80432360  0.88945533  0.33285600  1.0
  O2-  O33  1  0.80432360  0.88945533  0.66618933  1.0
  O2-  O33  1  0.80432360  0.88945533  0.99952267  1.0
  O2-  O34  1  0.19567640  0.11054467  0.16618933  1.0
  O2-  O34  1  0.19567640  0.11054467  0.49952267  1.0
  O2-  O34  1  0.19567640  0.11054467  0.83285600  1.0
  O2-  O34  1  0.19567640  0.44387800  0.16618933  1.0
  O2-  O34  1  0.19567640  0.44387800  0.49952267  1.0
  O2-  O34  1  0.19567640  0.44387800  0.83285600  1.0
  O2-  O34  1  0.19567640  0.77721133  0.16618933  1.0
  O2-  O34  1  0.19567640  0.77721133  0.49952267  1.0
  O2-  O34  1  0.19567640  0.77721133  0.83285600  1.0
  O2-  O34  1  0.39567640  0.11054467  0.16618933  1.0
  O2-  O34  1  0.39567640  0.11054467  0.49952267  1.0
  O2-  O34  1  0.39567640  0.11054467  0.83285600  1.0
  O2-  O34  1  0.39567640  0.44387800  0.16618933  1.0
  O2-  O34  1  0.39567640  0.44387800  0.49952267  1.0
  O2-  O34  1  0.39567640  0.44387800  0.83285600  1.0
  O2-  O34  1  0.39567640  0.77721133  0.16618933  1.0
  O2-  O34  1  0.39567640  0.77721133  0.49952267  1.0
  O2-  O34  1  0.39567640  0.77721133  0.83285600  1.0
  O2-  O34  1  0.59567640  0.11054467  0.16618933  1.0
  O2-  O34  1  0.59567640  0.11054467  0.49952267  1.0
  O2-  O34  1  0.59567640  0.11054467  0.83285600  1.0
  O2-  O34  1  0.59567640  0.44387800  0.16618933  1.0
  O2-  O34  1  0.59567640  0.44387800  0.49952267  1.0
  O2-  O34  1  0.59567640  0.44387800  0.83285600  1.0
  O2-  O34  1  0.59567640  0.77721133  0.16618933  1.0
  O2-  O34  1  0.59567640  0.77721133  0.49952267  1.0
  O2-  O34  1  0.59567640  0.77721133  0.83285600  1.0
  O2-  O34  1  0.79567640  0.11054467  0.16618933  1.0
  O2-  O34  1  0.79567640  0.11054467  0.49952267  1.0
  O2-  O34  1  0.79567640  0.11054467  0.83285600  1.0
  O2-  O34  1  0.79567640  0.44387800  0.16618933  1.0
  O2-  O34  1  0.79567640  0.44387800  0.49952267  1.0
  O2-  O34  1  0.79567640  0.44387800  0.83285600  1.0
  O2-  O34  1  0.79567640  0.77721133  0.16618933  1.0
  O2-  O34  1  0.79567640  0.77721133  0.49952267  1.0
  O2-  O34  1  0.79567640  0.77721133  0.83285600  1.0
  O2-  O34  1  0.99567640  0.11054467  0.16618933  1.0
  O2-  O34  1  0.99567640  0.11054467  0.49952267  1.0
  O2-  O34  1  0.99567640  0.11054467  0.83285600  1.0
  O2-  O34  1  0.99567640  0.44387800  0.16618933  1.0
  O2-  O34  1  0.99567640  0.44387800  0.49952267  1.0
  O2-  O34  1  0.99567640  0.44387800  0.83285600  1.0
  O2-  O34  1  0.99567640  0.77721133  0.16618933  1.0
  O2-  O34  1  0.99567640  0.77721133  0.49952267  1.0
  O2-  O34  1  0.99567640  0.77721133  0.83285600  1.0
  O2-  O35  1  0.10432360  0.27721133  0.33285600  1.0
  O2-  O35  1  0.10432360  0.27721133  0.66618933  1.0
  O2-  O35  1  0.10432360  0.27721133  0.99952267  1.0
  O2-  O35  1  0.10432360  0.61054467  0.33285600  1.0
  O2-  O35  1  0.10432360  0.61054467  0.66618933  1.0
  O2-  O35  1  0.10432360  0.61054467  0.99952267  1.0
  O2-  O35  1  0.10432360  0.94387800  0.33285600  1.0
  O2-  O35  1  0.10432360  0.94387800  0.66618933  1.0
  O2-  O35  1  0.10432360  0.94387800  0.99952267  1.0
  O2-  O35  1  0.30432360  0.27721133  0.33285600  1.0
  O2-  O35  1  0.30432360  0.27721133  0.66618933  1.0
  O2-  O35  1  0.30432360  0.27721133  0.99952267  1.0
  O2-  O35  1  0.30432360  0.61054467  0.33285600  1.0
  O2-  O35  1  0.30432360  0.61054467  0.66618933  1.0
  O2-  O35  1  0.30432360  0.61054467  0.99952267  1.0
  O2-  O35  1  0.30432360  0.94387800  0.33285600  1.0
  O2-  O35  1  0.30432360  0.94387800  0.66618933  1.0
  O2-  O35  1  0.30432360  0.94387800  0.99952267  1.0
  O2-  O35  1  0.50432360  0.27721133  0.33285600  1.0
  O2-  O35  1  0.50432360  0.27721133  0.66618933  1.0
  O2-  O35  1  0.50432360  0.27721133  0.99952267  1.0
  O2-  O35  1  0.50432360  0.61054467  0.33285600  1.0
  O2-  O35  1  0.50432360  0.61054467  0.66618933  1.0
  O2-  O35  1  0.50432360  0.61054467  0.99952267  1.0
  O2-  O35  1  0.50432360  0.94387800  0.33285600  1.0
  O2-  O35  1  0.50432360  0.94387800  0.66618933  1.0
  O2-  O35  1  0.50432360  0.94387800  0.99952267  1.0
  O2-  O35  1  0.70432360  0.27721133  0.33285600  1.0
  O2-  O35  1  0.70432360  0.27721133  0.66618933  1.0
  O2-  O35  1  0.70432360  0.27721133  0.99952267  1.0
  O2-  O35  1  0.70432360  0.61054467  0.33285600  1.0
  O2-  O35  1  0.70432360  0.61054467  0.66618933  1.0
  O2-  O35  1  0.70432360  0.61054467  0.99952267  1.0
  O2-  O35  1  0.70432360  0.94387800  0.33285600  1.0
  O2-  O35  1  0.70432360  0.94387800  0.66618933  1.0
  O2-  O35  1  0.70432360  0.94387800  0.99952267  1.0
  O2-  O35  1  0.90432360  0.27721133  0.33285600  1.0
  O2-  O35  1  0.90432360  0.27721133  0.66618933  1.0
  O2-  O35  1  0.90432360  0.27721133  0.99952267  1.0
  O2-  O35  1  0.90432360  0.61054467  0.33285600  1.0
  O2-  O35  1  0.90432360  0.61054467  0.66618933  1.0
  O2-  O35  1  0.90432360  0.61054467  0.99952267  1.0
  O2-  O35  1  0.90432360  0.94387800  0.33285600  1.0
  O2-  O35  1  0.90432360  0.94387800  0.66618933  1.0
  O2-  O35  1  0.90432360  0.94387800  0.99952267  1.0
  O2-  O36  1  0.00504280  0.32945533  0.16535167  1.0
  O2-  O36  1  0.00504280  0.32945533  0.49868500  1.0
  O2-  O36  1  0.00504280  0.32945533  0.83201833  1.0
  O2-  O36  1  0.00504280  0.66278867  0.16535167  1.0
  O2-  O36  1  0.00504280  0.66278867  0.49868500  1.0
  O2-  O36  1  0.00504280  0.66278867  0.83201833  1.0
  O2-  O36  1  0.00504280  0.99612200  0.16535167  1.0
  O2-  O36  1  0.00504280  0.99612200  0.49868500  1.0
  O2-  O36  1  0.00504280  0.99612200  0.83201833  1.0
  O2-  O36  1  0.20504280  0.32945533  0.16535167  1.0
  O2-  O36  1  0.20504280  0.32945533  0.49868500  1.0
  O2-  O36  1  0.20504280  0.32945533  0.83201833  1.0
  O2-  O36  1  0.20504280  0.66278867  0.16535167  1.0
  O2-  O36  1  0.20504280  0.66278867  0.49868500  1.0
  O2-  O36  1  0.20504280  0.66278867  0.83201833  1.0
  O2-  O36  1  0.20504280  0.99612200  0.16535167  1.0
  O2-  O36  1  0.20504280  0.99612200  0.49868500  1.0
  O2-  O36  1  0.20504280  0.99612200  0.83201833  1.0
  O2-  O36  1  0.40504280  0.32945533  0.16535167  1.0
  O2-  O36  1  0.40504280  0.32945533  0.49868500  1.0
  O2-  O36  1  0.40504280  0.32945533  0.83201833  1.0
  O2-  O36  1  0.40504280  0.66278867  0.16535167  1.0
  O2-  O36  1  0.40504280  0.66278867  0.49868500  1.0
  O2-  O36  1  0.40504280  0.66278867  0.83201833  1.0
  O2-  O36  1  0.40504280  0.99612200  0.16535167  1.0
  O2-  O36  1  0.40504280  0.99612200  0.49868500  1.0
  O2-  O36  1  0.40504280  0.99612200  0.83201833  1.0
  O2-  O36  1  0.60504280  0.32945533  0.16535167  1.0
  O2-  O36  1  0.60504280  0.32945533  0.49868500  1.0
  O2-  O36  1  0.60504280  0.32945533  0.83201833  1.0
  O2-  O36  1  0.60504280  0.66278867  0.16535167  1.0
  O2-  O36  1  0.60504280  0.66278867  0.49868500  1.0
  O2-  O36  1  0.60504280  0.66278867  0.83201833  1.0
  O2-  O36  1  0.60504280  0.99612200  0.16535167  1.0
  O2-  O36  1  0.60504280  0.99612200  0.49868500  1.0
  O2-  O36  1  0.60504280  0.99612200  0.83201833  1.0
  O2-  O36  1  0.80504280  0.32945533  0.16535167  1.0
  O2-  O36  1  0.80504280  0.32945533  0.49868500  1.0
  O2-  O36  1  0.80504280  0.32945533  0.83201833  1.0
  O2-  O36  1  0.80504280  0.66278867  0.16535167  1.0
  O2-  O36  1  0.80504280  0.66278867  0.49868500  1.0
  O2-  O36  1  0.80504280  0.66278867  0.83201833  1.0
  O2-  O36  1  0.80504280  0.99612200  0.16535167  1.0
  O2-  O36  1  0.80504280  0.99612200  0.49868500  1.0
  O2-  O36  1  0.80504280  0.99612200  0.83201833  1.0
  O2-  O37  1  0.19495720  0.00387800  0.33201833  1.0
  O2-  O37  1  0.19495720  0.00387800  0.66535167  1.0
  O2-  O37  1  0.19495720  0.00387800  0.99868500  1.0
  O2-  O37  1  0.19495720  0.33721133  0.33201833  1.0
  O2-  O37  1  0.19495720  0.33721133  0.66535167  1.0
  O2-  O37  1  0.19495720  0.33721133  0.99868500  1.0
  O2-  O37  1  0.19495720  0.67054467  0.33201833  1.0
  O2-  O37  1  0.19495720  0.67054467  0.66535167  1.0
  O2-  O37  1  0.19495720  0.67054467  0.99868500  1.0
  O2-  O37  1  0.39495720  0.00387800  0.33201833  1.0
  O2-  O37  1  0.39495720  0.00387800  0.66535167  1.0
  O2-  O37  1  0.39495720  0.00387800  0.99868500  1.0
  O2-  O37  1  0.39495720  0.33721133  0.33201833  1.0
  O2-  O37  1  0.39495720  0.33721133  0.66535167  1.0
  O2-  O37  1  0.39495720  0.33721133  0.99868500  1.0
  O2-  O37  1  0.39495720  0.67054467  0.33201833  1.0
  O2-  O37  1  0.39495720  0.67054467  0.66535167  1.0
  O2-  O37  1  0.39495720  0.67054467  0.99868500  1.0
  O2-  O37  1  0.59495720  0.00387800  0.33201833  1.0
  O2-  O37  1  0.59495720  0.00387800  0.66535167  1.0
  O2-  O37  1  0.59495720  0.00387800  0.99868500  1.0
  O2-  O37  1  0.59495720  0.33721133  0.33201833  1.0
  O2-  O37  1  0.59495720  0.33721133  0.66535167  1.0
  O2-  O37  1  0.59495720  0.33721133  0.99868500  1.0
  O2-  O37  1  0.59495720  0.67054467  0.33201833  1.0
  O2-  O37  1  0.59495720  0.67054467  0.66535167  1.0
  O2-  O37  1  0.59495720  0.67054467  0.99868500  1.0
  O2-  O37  1  0.79495720  0.00387800  0.33201833  1.0
  O2-  O37  1  0.79495720  0.00387800  0.66535167  1.0
  O2-  O37  1  0.79495720  0.00387800  0.99868500  1.0
  O2-  O37  1  0.79495720  0.33721133  0.33201833  1.0
  O2-  O37  1  0.79495720  0.33721133  0.66535167  1.0
  O2-  O37  1  0.79495720  0.33721133  0.99868500  1.0
  O2-  O37  1  0.79495720  0.67054467  0.33201833  1.0
  O2-  O37  1  0.79495720  0.67054467  0.66535167  1.0
  O2-  O37  1  0.79495720  0.67054467  0.99868500  1.0
  O2-  O37  1  0.99495720  0.00387800  0.33201833  1.0
  O2-  O37  1  0.99495720  0.00387800  0.66535167  1.0
  O2-  O37  1  0.99495720  0.00387800  0.99868500  1.0
  O2-  O37  1  0.99495720  0.33721133  0.33201833  1.0
  O2-  O37  1  0.99495720  0.33721133  0.66535167  1.0
  O2-  O37  1  0.99495720  0.33721133  0.99868500  1.0
  O2-  O37  1  0.99495720  0.67054467  0.33201833  1.0
  O2-  O37  1  0.99495720  0.67054467  0.66535167  1.0
  O2-  O37  1  0.99495720  0.67054467  0.99868500  1.0
  O2-  O38  1  0.10504280  0.17054467  0.16535167  1.0
  O2-  O38  1  0.10504280  0.17054467  0.49868500  1.0
  O2-  O38  1  0.10504280  0.17054467  0.83201833  1.0
  O2-  O38  1  0.10504280  0.50387800  0.16535167  1.0
  O2-  O38  1  0.10504280  0.50387800  0.49868500  1.0
  O2-  O38  1  0.10504280  0.50387800  0.83201833  1.0
  O2-  O38  1  0.10504280  0.83721133  0.16535167  1.0
  O2-  O38  1  0.10504280  0.83721133  0.49868500  1.0
  O2-  O38  1  0.10504280  0.83721133  0.83201833  1.0
  O2-  O38  1  0.30504280  0.17054467  0.16535167  1.0
  O2-  O38  1  0.30504280  0.17054467  0.49868500  1.0
  O2-  O38  1  0.30504280  0.17054467  0.83201833  1.0
  O2-  O38  1  0.30504280  0.50387800  0.16535167  1.0
  O2-  O38  1  0.30504280  0.50387800  0.49868500  1.0
  O2-  O38  1  0.30504280  0.50387800  0.83201833  1.0
  O2-  O38  1  0.30504280  0.83721133  0.16535167  1.0
  O2-  O38  1  0.30504280  0.83721133  0.49868500  1.0
  O2-  O38  1  0.30504280  0.83721133  0.83201833  1.0
  O2-  O38  1  0.50504280  0.17054467  0.16535167  1.0
  O2-  O38  1  0.50504280  0.17054467  0.49868500  1.0
  O2-  O38  1  0.50504280  0.17054467  0.83201833  1.0
  O2-  O38  1  0.50504280  0.50387800  0.16535167  1.0
  O2-  O38  1  0.50504280  0.50387800  0.49868500  1.0
  O2-  O38  1  0.50504280  0.50387800  0.83201833  1.0
  O2-  O38  1  0.50504280  0.83721133  0.16535167  1.0
  O2-  O38  1  0.50504280  0.83721133  0.49868500  1.0
  O2-  O38  1  0.50504280  0.83721133  0.83201833  1.0
  O2-  O38  1  0.70504280  0.17054467  0.16535167  1.0
  O2-  O38  1  0.70504280  0.17054467  0.49868500  1.0
  O2-  O38  1  0.70504280  0.17054467  0.83201833  1.0
  O2-  O38  1  0.70504280  0.50387800  0.16535167  1.0
  O2-  O38  1  0.70504280  0.50387800  0.49868500  1.0
  O2-  O38  1  0.70504280  0.50387800  0.83201833  1.0
  O2-  O38  1  0.70504280  0.83721133  0.16535167  1.0
  O2-  O38  1  0.70504280  0.83721133  0.49868500  1.0
  O2-  O38  1  0.70504280  0.83721133  0.83201833  1.0
  O2-  O38  1  0.90504280  0.17054467  0.16535167  1.0
  O2-  O38  1  0.90504280  0.17054467  0.49868500  1.0
  O2-  O38  1  0.90504280  0.17054467  0.83201833  1.0
  O2-  O38  1  0.90504280  0.50387800  0.16535167  1.0
  O2-  O38  1  0.90504280  0.50387800  0.49868500  1.0
  O2-  O38  1  0.90504280  0.50387800  0.83201833  1.0
  O2-  O38  1  0.90504280  0.83721133  0.16535167  1.0
  O2-  O38  1  0.90504280  0.83721133  0.49868500  1.0
  O2-  O38  1  0.90504280  0.83721133  0.83201833  1.0
  O2-  O39  1  0.09495720  0.16278867  0.33201833  1.0
  O2-  O39  1  0.09495720  0.16278867  0.66535167  1.0
  O2-  O39  1  0.09495720  0.16278867  0.99868500  1.0
  O2-  O39  1  0.09495720  0.49612200  0.33201833  1.0
  O2-  O39  1  0.09495720  0.49612200  0.66535167  1.0
  O2-  O39  1  0.09495720  0.49612200  0.99868500  1.0
  O2-  O39  1  0.09495720  0.82945533  0.33201833  1.0
  O2-  O39  1  0.09495720  0.82945533  0.66535167  1.0
  O2-  O39  1  0.09495720  0.82945533  0.99868500  1.0
  O2-  O39  1  0.29495720  0.16278867  0.33201833  1.0
  O2-  O39  1  0.29495720  0.16278867  0.66535167  1.0
  O2-  O39  1  0.29495720  0.16278867  0.99868500  1.0
  O2-  O39  1  0.29495720  0.49612200  0.33201833  1.0
  O2-  O39  1  0.29495720  0.49612200  0.66535167  1.0
  O2-  O39  1  0.29495720  0.49612200  0.99868500  1.0
  O2-  O39  1  0.29495720  0.82945533  0.33201833  1.0
  O2-  O39  1  0.29495720  0.82945533  0.66535167  1.0
  O2-  O39  1  0.29495720  0.82945533  0.99868500  1.0
  O2-  O39  1  0.49495720  0.16278867  0.33201833  1.0
  O2-  O39  1  0.49495720  0.16278867  0.66535167  1.0
  O2-  O39  1  0.49495720  0.16278867  0.99868500  1.0
  O2-  O39  1  0.49495720  0.49612200  0.33201833  1.0
  O2-  O39  1  0.49495720  0.49612200  0.66535167  1.0
  O2-  O39  1  0.49495720  0.49612200  0.99868500  1.0
  O2-  O39  1  0.49495720  0.82945533  0.33201833  1.0
  O2-  O39  1  0.49495720  0.82945533  0.66535167  1.0
  O2-  O39  1  0.49495720  0.82945533  0.99868500  1.0
  O2-  O39  1  0.69495720  0.16278867  0.33201833  1.0
  O2-  O39  1  0.69495720  0.16278867  0.66535167  1.0
  O2-  O39  1  0.69495720  0.16278867  0.99868500  1.0
  O2-  O39  1  0.69495720  0.49612200  0.33201833  1.0
  O2-  O39  1  0.69495720  0.49612200  0.66535167  1.0
  O2-  O39  1  0.69495720  0.49612200  0.99868500  1.0
  O2-  O39  1  0.69495720  0.82945533  0.33201833  1.0
  O2-  O39  1  0.69495720  0.82945533  0.66535167  1.0
  O2-  O39  1  0.69495720  0.82945533  0.99868500  1.0
  O2-  O39  1  0.89495720  0.16278867  0.33201833  1.0
  O2-  O39  1  0.89495720  0.16278867  0.66535167  1.0
  O2-  O39  1  0.89495720  0.16278867  0.99868500  1.0
  O2-  O39  1  0.89495720  0.49612200  0.33201833  1.0
  O2-  O39  1  0.89495720  0.49612200  0.66535167  1.0
  O2-  O39  1  0.89495720  0.49612200  0.99868500  1.0
  O2-  O39  1  0.89495720  0.82945533  0.33201833  1.0
  O2-  O39  1  0.89495720  0.82945533  0.66535167  1.0
  O2-  O39  1  0.89495720  0.82945533  0.99868500  1.0
