# generated using pymatgen
data_Fe2O3
_symmetry_space_group_name_H-M   'P 1'
_cell_length_a   25.45951025
_cell_length_b   25.45951025
_cell_length_c   27.54859530
_cell_angle_alpha   90.00000000
_cell_angle_beta   90.00000000
_cell_angle_gamma   120.00000000
_symmetry_Int_Tables_number   1
_chemical_formula_structural   Fe2O3
_chemical_formula_sum   'Fe600 O900'
_cell_volume   15464.29696832
_cell_formula_units_Z   300
loop_
 _symmetry_equiv_pos_site_id
 _symmetry_equiv_pos_as_xyz
  1  'x, y, z'
loop_
 _atom_type_symbol
 _atom_type_oxidation_number
  Fe3+  3.0
  O2-  -2.0
loop_
 _atom_site_type_symbol
 _atom_site_label
 _atom_site_symmetry_multiplicity
 _atom_site_fract_x
 _atom_site_fract_y
 _atom_site_fract_z
 _atom_site_occupancy
  Fe3+  Fe0  1  0.06666667  0.13333333  0.26074475  1.0
  Fe3+  Fe0  1  0.06666667  0.13333333  0.76074475  1.0
  Fe3+  Fe0  1  0.06666667  0.33333333  0.26074475  1.0
  Fe3+  Fe0  1  0.06666667  0.33333333  0.76074475  1.0
  Fe3+  Fe0  1  0.06666667  0.53333333  0.26074475  1.0
  Fe3+  Fe0  1  0.06666667  0.53333333  0.76074475  1.0
  Fe3+  Fe0  1  0.06666667  0.73333333  0.26074475  1.0
  Fe3+  Fe0  1  0.06666667  0.73333333  0.76074475  1.0
  Fe3+  Fe0  1  0.06666667  0.93333333  0.26074475  1.0
  Fe3+  Fe0  1  0.06666667  0.93333333  0.76074475  1.0
  Fe3+  Fe0  1  0.26666667  0.13333333  0.26074475  1.0
  Fe3+  Fe0  1  0.26666667  0.13333333  0.76074475  1.0
  Fe3+  Fe0  1  0.26666667  0.33333333  0.26074475  1.0
  Fe3+  Fe0  1  0.26666667  0.33333333  0.76074475  1.0
  Fe3+  Fe0  1  0.26666667  0.53333333  0.26074475  1.0
  Fe3+  Fe0  1  0.26666667  0.53333333  0.76074475  1.0
  Fe3+  Fe0  1  0.26666667  0.73333333  0.26074475  1.0
  Fe3+  Fe0  1  0.26666667  0.73333333  0.76074475  1.0
  Fe3+  Fe0  1  0.26666667  0.93333333  0.26074475  1.0
  Fe3+  Fe0  1  0.26666667  0.93333333  0.76074475  1.0
  Fe3+  Fe0  1  0.46666667  0.13333333  0.26074475  1.0
  Fe3+  Fe0  1  0.46666667  0.13333333  0.76074475  1.0
  Fe3+  Fe0  1  0.46666667  0.33333333  0.26074475  1.0
  Fe3+  Fe0  1  0.46666667  0.33333333  0.76074475  1.0
  Fe3+  Fe0  1  0.46666667  0.53333333  0.26074475  1.0
  Fe3+  Fe0  1  0.46666667  0.53333333  0.76074475  1.0
  Fe3+  Fe0  1  0.46666667  0.73333333  0.26074475  1.0
  Fe3+  Fe0  1  0.46666667  0.73333333  0.76074475  1.0
  Fe3+  Fe0  1  0.46666667  0.93333333  0.26074475  1.0
  Fe3+  Fe0  1  0.46666667  0.93333333  0.76074475  1.0
  Fe3+  Fe0  1  0.66666667  0.13333333  0.26074475  1.0
  Fe3+  Fe0  1  0.66666667  0.13333333  0.76074475  1.0
  Fe3+  Fe0  1  0.66666667  0.33333333  0.26074475  1.0
  Fe3+  Fe0  1  0.66666667  0.33333333  0.76074475  1.0
  Fe3+  Fe0  1  0.66666667  0.53333333  0.26074475  1.0
  Fe3+  Fe0  1  0.66666667  0.53333333  0.76074475  1.0
  Fe3+  Fe0  1  0.66666667  0.73333333  0.26074475  1.0
  Fe3+  Fe0  1  0.66666667  0.73333333  0.76074475  1.0
  Fe3+  Fe0  1  0.66666667  0.93333333  0.26074475  1.0
  Fe3+  Fe0  1  0.66666667  0.93333333  0.76074475  1.0
  Fe3+  Fe0  1  0.86666667  0.13333333  0.26074475  1.0
  Fe3+  Fe0  1  0.86666667  0.13333333  0.76074475  1.0
  Fe3+  Fe0  1  0.86666667  0.33333333  0.26074475  1.0
  Fe3+  Fe0  1  0.86666667  0.33333333  0.76074475  1.0
  Fe3+  Fe0  1  0.86666667  0.53333333  0.26074475  1.0
  Fe3+  Fe0  1  0.86666667  0.53333333  0.76074475  1.0
  Fe3+  Fe0  1  0.86666667  0.73333333  0.26074475  1.0
  Fe3+  Fe0  1  0.86666667  0.73333333  0.76074475  1.0
  Fe3+  Fe0  1  0.86666667  0.93333333  0.26074475  1.0
  Fe3+  Fe0  1  0.86666667  0.93333333  0.76074475  1.0
  Fe3+  Fe1  1  0.00000000  0.00000000  0.32258859  1.0
  Fe3+  Fe1  1  0.00000000  0.00000000  0.82258859  1.0
  Fe3+  Fe1  1  0.00000000  0.20000000  0.32258859  1.0
  Fe3+  Fe1  1  0.00000000  0.20000000  0.82258859  1.0
  Fe3+  Fe1  1  0.00000000  0.40000000  0.32258859  1.0
  Fe3+  Fe1  1  0.00000000  0.40000000  0.82258859  1.0
  Fe3+  Fe1  1  0.00000000  0.60000000  0.32258859  1.0
  Fe3+  Fe1  1  0.00000000  0.60000000  0.82258859  1.0
  Fe3+  Fe1  1  0.00000000  0.80000000  0.32258859  1.0
  Fe3+  Fe1  1  0.00000000  0.80000000  0.82258859  1.0
  Fe3+  Fe1  1  0.20000000  0.00000000  0.32258859  1.0
  Fe3+  Fe1  1  0.20000000  0.00000000  0.82258859  1.0
  Fe3+  Fe1  1  0.20000000  0.20000000  0.32258859  1.0
  Fe3+  Fe1  1  0.20000000  0.20000000  0.82258859  1.0
  Fe3+  Fe1  1  0.20000000  0.40000000  0.32258859  1.0
  Fe3+  Fe1  1  0.20000000  0.40000000  0.82258859  1.0
  Fe3+  Fe1  1  0.20000000  0.60000000  0.32258859  1.0
  Fe3+  Fe1  1  0.20000000  0.60000000  0.82258859  1.0
  Fe3+  Fe1  1  0.20000000  0.80000000  0.32258859  1.0
  Fe3+  Fe1  1  0.20000000  0.80000000  0.82258858  1.0
  Fe3+  Fe1  1  0.40000000  0.00000000  0.32258859  1.0
  Fe3+  Fe1  1  0.40000000  0.00000000  0.82258859  1.0
  Fe3+  Fe1  1  0.40000000  0.20000000  0.32258859  1.0
  Fe3+  Fe1  1  0.40000000  0.20000000  0.82258859  1.0
  Fe3+  Fe1  1  0.40000000  0.40000000  0.32258859  1.0
  Fe3+  Fe1  1  0.40000000  0.40000000  0.82258859  1.0
  Fe3+  Fe1  1  0.40000000  0.60000000  0.32258859  1.0
  Fe3+  Fe1  1  0.40000000  0.60000000  0.82258858  1.0
  Fe3+  Fe1  1  0.40000000  0.80000000  0.32258859  1.0
  Fe3+  Fe1  1  0.40000000  0.80000000  0.82258858  1.0
  Fe3+  Fe1  1  0.60000000  0.00000000  0.32258859  1.0
  Fe3+  Fe1  1  0.60000000  0.00000000  0.82258859  1.0
  Fe3+  Fe1  1  0.60000000  0.20000000  0.32258859  1.0
  Fe3+  Fe1  1  0.60000000  0.20000000  0.82258859  1.0
  Fe3+  Fe1  1  0.60000000  0.40000000  0.32258859  1.0
  Fe3+  Fe1  1  0.60000000  0.40000000  0.82258858  1.0
  Fe3+  Fe1  1  0.60000000  0.60000000  0.32258859  1.0
  Fe3+  Fe1  1  0.60000000  0.60000000  0.82258858  1.0
  Fe3+  Fe1  1  0.60000000  0.80000000  0.32258859  1.0
  Fe3+  Fe1  1  0.60000000  0.80000000  0.82258858  1.0
  Fe3+  Fe1  1  0.80000000  0.00000000  0.32258859  1.0
  Fe3+  Fe1  1  0.80000000  0.00000000  0.82258859  1.0
  Fe3+  Fe1  1  0.80000000  0.20000000  0.32258859  1.0
  Fe3+  Fe1  1  0.80000000  0.20000000  0.82258858  1.0
  Fe3+  Fe1  1  0.80000000  0.40000000  0.32258859  1.0
  Fe3+  Fe1  1  0.80000000  0.40000000  0.82258858  1.0
  Fe3+  Fe1  1  0.80000000  0.60000000  0.32258859  1.0
  Fe3+  Fe1  1  0.80000000  0.60000000  0.82258858  1.0
  Fe3+  Fe1  1  0.80000000  0.80000000  0.32258858  1.0
  Fe3+  Fe1  1  0.80000000  0.80000000  0.82258858  1.0
  Fe3+  Fe2  1  0.06666667  0.13333333  0.40592192  1.0
  Fe3+  Fe2  1  0.06666667  0.13333333  0.90592192  1.0
  Fe3+  Fe2  1  0.06666667  0.33333333  0.40592192  1.0
  Fe3+  Fe2  1  0.06666667  0.33333333  0.90592192  1.0
  Fe3+  Fe2  1  0.06666667  0.53333333  0.40592192  1.0
  Fe3+  Fe2  1  0.06666667  0.53333333  0.90592192  1.0
  Fe3+  Fe2  1  0.06666667  0.73333333  0.40592192  1.0
  Fe3+  Fe2  1  0.06666667  0.73333333  0.90592192  1.0
  Fe3+  Fe2  1  0.06666667  0.93333333  0.40592192  1.0
  Fe3+  Fe2  1  0.06666667  0.93333333  0.90592192  1.0
  Fe3+  Fe2  1  0.26666667  0.13333333  0.40592192  1.0
  Fe3+  Fe2  1  0.26666667  0.13333333  0.90592192  1.0
  Fe3+  Fe2  1  0.26666667  0.33333333  0.40592192  1.0
  Fe3+  Fe2  1  0.26666667  0.33333333  0.90592192  1.0
  Fe3+  Fe2  1  0.26666667  0.53333333  0.40592192  1.0
  Fe3+  Fe2  1  0.26666667  0.53333333  0.90592192  1.0
  Fe3+  Fe2  1  0.26666667  0.73333333  0.40592192  1.0
  Fe3+  Fe2  1  0.26666667  0.73333333  0.90592192  1.0
  Fe3+  Fe2  1  0.26666667  0.93333333  0.40592192  1.0
  Fe3+  Fe2  1  0.26666667  0.93333333  0.90592192  1.0
  Fe3+  Fe2  1  0.46666667  0.13333333  0.40592192  1.0
  Fe3+  Fe2  1  0.46666667  0.13333333  0.90592192  1.0
  Fe3+  Fe2  1  0.46666667  0.33333333  0.40592192  1.0
  Fe3+  Fe2  1  0.46666667  0.33333333  0.90592192  1.0
  Fe3+  Fe2  1  0.46666667  0.53333333  0.40592192  1.0
  Fe3+  Fe2  1  0.46666667  0.53333333  0.90592192  1.0
  Fe3+  Fe2  1  0.46666667  0.73333333  0.40592192  1.0
  Fe3+  Fe2  1  0.46666667  0.73333333  0.90592192  1.0
  Fe3+  Fe2  1  0.46666667  0.93333333  0.40592192  1.0
  Fe3+  Fe2  1  0.46666667  0.93333333  0.90592192  1.0
  Fe3+  Fe2  1  0.66666667  0.13333333  0.40592192  1.0
  Fe3+  Fe2  1  0.66666667  0.13333333  0.90592192  1.0
  Fe3+  Fe2  1  0.66666667  0.33333333  0.40592192  1.0
  Fe3+  Fe2  1  0.66666667  0.33333333  0.90592192  1.0
  Fe3+  Fe2  1  0.66666667  0.53333333  0.40592192  1.0
  Fe3+  Fe2  1  0.66666667  0.53333333  0.90592192  1.0
  Fe3+  Fe2  1  0.66666667  0.73333333  0.40592192  1.0
  Fe3+  Fe2  1  0.66666667  0.73333333  0.90592192  1.0
  Fe3+  Fe2  1  0.66666667  0.93333333  0.40592192  1.0
  Fe3+  Fe2  1  0.66666667  0.93333333  0.90592192  1.0
  Fe3+  Fe2  1  0.86666667  0.13333333  0.40592192  1.0
  Fe3+  Fe2  1  0.86666667  0.13333333  0.90592192  1.0
  Fe3+  Fe2  1  0.86666667  0.33333333  0.40592192  1.0
  Fe3+  Fe2  1  0.86666667  0.33333333  0.90592192  1.0
  Fe3+  Fe2  1  0.86666667  0.53333333  0.40592192  1.0
  Fe3+  Fe2  1  0.86666667  0.53333333  0.90592192  1.0
  Fe3+  Fe2  1  0.86666667  0.73333333  0.40592192  1.0
  Fe3+  Fe2  1  0.86666667  0.73333333  0.90592192  1.0
  Fe3+  Fe2  1  0.86666667  0.93333333  0.40592192  1.0
  Fe3+  Fe2  1  0.86666667  0.93333333  0.90592192  1.0
  Fe3+  Fe3  1  0.13333333  0.06666667  0.34407808  1.0
  Fe3+  Fe3  1  0.13333333  0.06666667  0.84407808  1.0
  Fe3+  Fe3  1  0.13333333  0.26666667  0.34407808  1.0
  Fe3+  Fe3  1  0.13333333  0.26666667  0.84407808  1.0
  Fe3+  Fe3  1  0.13333333  0.46666667  0.34407808  1.0
  Fe3+  Fe3  1  0.13333333  0.46666667  0.84407808  1.0
  Fe3+  Fe3  1  0.13333333  0.66666667  0.34407808  1.0
  Fe3+  Fe3  1  0.13333333  0.66666667  0.84407808  1.0
  Fe3+  Fe3  1  0.13333333  0.86666667  0.34407808  1.0
  Fe3+  Fe3  1  0.13333333  0.86666667  0.84407808  1.0
  Fe3+  Fe3  1  0.33333333  0.06666667  0.34407808  1.0
  Fe3+  Fe3  1  0.33333333  0.06666667  0.84407808  1.0
  Fe3+  Fe3  1  0.33333333  0.26666667  0.34407808  1.0
  Fe3+  Fe3  1  0.33333333  0.26666667  0.84407808  1.0
  Fe3+  Fe3  1  0.33333333  0.46666667  0.34407808  1.0
  Fe3+  Fe3  1  0.33333333  0.46666667  0.84407808  1.0
  Fe3+  Fe3  1  0.33333333  0.66666667  0.34407808  1.0
  Fe3+  Fe3  1  0.33333333  0.66666667  0.84407808  1.0
  Fe3+  Fe3  1  0.33333333  0.86666667  0.34407808  1.0
  Fe3+  Fe3  1  0.33333333  0.86666667  0.84407808  1.0
  Fe3+  Fe3  1  0.53333333  0.06666667  0.34407808  1.0
  Fe3+  Fe3  1  0.53333333  0.06666667  0.84407808  1.0
  Fe3+  Fe3  1  0.53333333  0.26666667  0.34407808  1.0
  Fe3+  Fe3  1  0.53333333  0.26666667  0.84407808  1.0
  Fe3+  Fe3  1  0.53333333  0.46666667  0.34407808  1.0
  Fe3+  Fe3  1  0.53333333  0.46666667  0.84407808  1.0
  Fe3+  Fe3  1  0.53333333  0.66666667  0.34407808  1.0
  Fe3+  Fe3  1  0.53333333  0.66666667  0.84407808  1.0
  Fe3+  Fe3  1  0.53333333  0.86666667  0.34407808  1.0
  Fe3+  Fe3  1  0.53333333  0.86666667  0.84407808  1.0
  Fe3+  Fe3  1  0.73333333  0.06666667  0.34407808  1.0
  Fe3+  Fe3  1  0.73333333  0.06666667  0.84407808  1.0
  Fe3+  Fe3  1  0.73333333  0.26666667  0.34407808  1.0
  Fe3+  Fe3  1  0.73333333  0.26666667  0.84407808  1.0
  Fe3+  Fe3  1  0.73333333  0.46666667  0.34407808  1.0
  Fe3+  Fe3  1  0.73333333  0.46666667  0.84407808  1.0
  Fe3+  Fe3  1  0.73333333  0.66666667  0.34407808  1.0
  Fe3+  Fe3  1  0.73333333  0.66666667  0.84407808  1.0
  Fe3+  Fe3  1  0.73333333  0.86666667  0.34407808  1.0
  Fe3+  Fe3  1  0.73333333  0.86666667  0.84407808  1.0
  Fe3+  Fe3  1  0.93333333  0.06666667  0.34407808  1.0
  Fe3+  Fe3  1  0.93333333  0.06666667  0.84407808  1.0
  Fe3+  Fe3  1  0.93333333  0.26666667  0.34407808  1.0
  Fe3+  Fe3  1  0.93333333  0.26666667  0.84407808  1.0
  Fe3+  Fe3  1  0.93333333  0.46666667  0.34407808  1.0
  Fe3+  Fe3  1  0.93333333  0.46666667  0.84407808  1.0
  Fe3+  Fe3  1  0.93333333  0.66666667  0.34407808  1.0
  Fe3+  Fe3  1  0.93333333  0.66666667  0.84407808  1.0
  Fe3+  Fe3  1  0.93333333  0.86666667  0.34407808  1.0
  Fe3+  Fe3  1  0.93333333  0.86666667  0.84407808  1.0
  Fe3+  Fe4  1  0.00000000  0.00000000  0.42741142  1.0
  Fe3+  Fe4  1  0.00000000  0.00000000  0.92741142  1.0
  Fe3+  Fe4  1  0.00000000  0.20000000  0.42741142  1.0
  Fe3+  Fe4  1  0.00000000  0.20000000  0.92741142  1.0
  Fe3+  Fe4  1  0.00000000  0.40000000  0.42741142  1.0
  Fe3+  Fe4  1  0.00000000  0.40000000  0.92741142  1.0
  Fe3+  Fe4  1  0.00000000  0.60000000  0.42741142  1.0
  Fe3+  Fe4  1  0.00000000  0.60000000  0.92741142  1.0
  Fe3+  Fe4  1  0.00000000  0.80000000  0.42741142  1.0
  Fe3+  Fe4  1  0.00000000  0.80000000  0.92741142  1.0
  Fe3+  Fe4  1  0.20000000  0.00000000  0.42741142  1.0
  Fe3+  Fe4  1  0.20000000  0.00000000  0.92741142  1.0
  Fe3+  Fe4  1  0.20000000  0.20000000  0.42741142  1.0
  Fe3+  Fe4  1  0.20000000  0.20000000  0.92741142  1.0
  Fe3+  Fe4  1  0.20000000  0.40000000  0.42741142  1.0
  Fe3+  Fe4  1  0.20000000  0.40000000  0.92741142  1.0
  Fe3+  Fe4  1  0.20000000  0.60000000  0.42741142  1.0
  Fe3+  Fe4  1  0.20000000  0.60000000  0.92741142  1.0
  Fe3+  Fe4  1  0.20000000  0.80000000  0.42741142  1.0
  Fe3+  Fe4  1  0.20000000  0.80000000  0.92741141  1.0
  Fe3+  Fe4  1  0.40000000  0.00000000  0.42741142  1.0
  Fe3+  Fe4  1  0.40000000  0.00000000  0.92741142  1.0
  Fe3+  Fe4  1  0.40000000  0.20000000  0.42741142  1.0
  Fe3+  Fe4  1  0.40000000  0.20000000  0.92741142  1.0
  Fe3+  Fe4  1  0.40000000  0.40000000  0.42741142  1.0
  Fe3+  Fe4  1  0.40000000  0.40000000  0.92741142  1.0
  Fe3+  Fe4  1  0.40000000  0.60000000  0.42741142  1.0
  Fe3+  Fe4  1  0.40000000  0.60000000  0.92741141  1.0
  Fe3+  Fe4  1  0.40000000  0.80000000  0.42741142  1.0
  Fe3+  Fe4  1  0.40000000  0.80000000  0.92741141  1.0
  Fe3+  Fe4  1  0.60000000  0.00000000  0.42741142  1.0
  Fe3+  Fe4  1  0.60000000  0.00000000  0.92741142  1.0
  Fe3+  Fe4  1  0.60000000  0.20000000  0.42741142  1.0
  Fe3+  Fe4  1  0.60000000  0.20000000  0.92741142  1.0
  Fe3+  Fe4  1  0.60000000  0.40000000  0.42741142  1.0
  Fe3+  Fe4  1  0.60000000  0.40000000  0.92741141  1.0
  Fe3+  Fe4  1  0.60000000  0.60000000  0.42741142  1.0
  Fe3+  Fe4  1  0.60000000  0.60000000  0.92741141  1.0
  Fe3+  Fe4  1  0.60000000  0.80000000  0.42741142  1.0
  Fe3+  Fe4  1  0.60000000  0.80000000  0.92741141  1.0
  Fe3+  Fe4  1  0.80000000  0.00000000  0.42741142  1.0
  Fe3+  Fe4  1  0.80000000  0.00000000  0.92741142  1.0
  Fe3+  Fe4  1  0.80000000  0.20000000  0.42741142  1.0
  Fe3+  Fe4  1  0.80000000  0.20000000  0.92741141  1.0
  Fe3+  Fe4  1  0.80000000  0.40000000  0.42741142  1.0
  Fe3+  Fe4  1  0.80000000  0.40000000  0.92741141  1.0
  Fe3+  Fe4  1  0.80000000  0.60000000  0.42741142  1.0
  Fe3+  Fe4  1  0.80000000  0.60000000  0.92741141  1.0
  Fe3+  Fe4  1  0.80000000  0.80000000  0.42741142  1.0
  Fe3+  Fe4  1  0.80000000  0.80000000  0.92741141  1.0
  Fe3+  Fe5  1  0.13333333  0.06666667  0.48925525  1.0
  Fe3+  Fe5  1  0.13333333  0.06666667  0.98925525  1.0
  Fe3+  Fe5  1  0.13333333  0.26666667  0.48925525  1.0
  Fe3+  Fe5  1  0.13333333  0.26666667  0.98925525  1.0
  Fe3+  Fe5  1  0.13333333  0.46666667  0.48925525  1.0
  Fe3+  Fe5  1  0.13333333  0.46666667  0.98925525  1.0
  Fe3+  Fe5  1  0.13333333  0.66666667  0.48925525  1.0
  Fe3+  Fe5  1  0.13333333  0.66666667  0.98925525  1.0
  Fe3+  Fe5  1  0.13333333  0.86666667  0.48925525  1.0
  Fe3+  Fe5  1  0.13333333  0.86666667  0.98925525  1.0
  Fe3+  Fe5  1  0.33333333  0.06666667  0.48925525  1.0
  Fe3+  Fe5  1  0.33333333  0.06666667  0.98925525  1.0
  Fe3+  Fe5  1  0.33333333  0.26666667  0.48925525  1.0
  Fe3+  Fe5  1  0.33333333  0.26666667  0.98925525  1.0
  Fe3+  Fe5  1  0.33333333  0.46666667  0.48925525  1.0
  Fe3+  Fe5  1  0.33333333  0.46666667  0.98925525  1.0
  Fe3+  Fe5  1  0.33333333  0.66666667  0.48925525  1.0
  Fe3+  Fe5  1  0.33333333  0.66666667  0.98925525  1.0
  Fe3+  Fe5  1  0.33333333  0.86666667  0.48925525  1.0
  Fe3+  Fe5  1  0.33333333  0.86666667  0.98925525  1.0
  Fe3+  Fe5  1  0.53333333  0.06666667  0.48925525  1.0
  Fe3+  Fe5  1  0.53333333  0.06666667  0.98925525  1.0
  Fe3+  Fe5  1  0.53333333  0.26666667  0.48925525  1.0
  Fe3+  Fe5  1  0.53333333  0.26666667  0.98925525  1.0
  Fe3+  Fe5  1  0.53333333  0.46666667  0.48925525  1.0
  Fe3+  Fe5  1  0.53333333  0.46666667  0.98925525  1.0
  Fe3+  Fe5  1  0.53333333  0.66666667  0.48925525  1.0
  Fe3+  Fe5  1  0.53333333  0.66666667  0.98925525  1.0
  Fe3+  Fe5  1  0.53333333  0.86666667  0.48925525  1.0
  Fe3+  Fe5  1  0.53333333  0.86666667  0.98925525  1.0
  Fe3+  Fe5  1  0.73333333  0.06666667  0.48925525  1.0
  Fe3+  Fe5  1  0.73333333  0.06666667  0.98925525  1.0
  Fe3+  Fe5  1  0.73333333  0.26666667  0.48925525  1.0
  Fe3+  Fe5  1  0.73333333  0.26666667  0.98925525  1.0
  Fe3+  Fe5  1  0.73333333  0.46666667  0.48925525  1.0
  Fe3+  Fe5  1  0.73333333  0.46666667  0.98925525  1.0
  Fe3+  Fe5  1  0.73333333  0.66666667  0.48925525  1.0
  Fe3+  Fe5  1  0.73333333  0.66666667  0.98925525  1.0
  Fe3+  Fe5  1  0.73333333  0.86666667  0.48925525  1.0
  Fe3+  Fe5  1  0.73333333  0.86666667  0.98925525  1.0
  Fe3+  Fe5  1  0.93333333  0.06666667  0.48925525  1.0
  Fe3+  Fe5  1  0.93333333  0.06666667  0.98925525  1.0
  Fe3+  Fe5  1  0.93333333  0.26666667  0.48925525  1.0
  Fe3+  Fe5  1  0.93333333  0.26666667  0.98925525  1.0
  Fe3+  Fe5  1  0.93333333  0.46666667  0.48925525  1.0
  Fe3+  Fe5  1  0.93333333  0.46666667  0.98925525  1.0
  Fe3+  Fe5  1  0.93333333  0.66666667  0.48925525  1.0
  Fe3+  Fe5  1  0.93333333  0.66666667  0.98925525  1.0
  Fe3+  Fe5  1  0.93333333  0.86666667  0.48925525  1.0
  Fe3+  Fe5  1  0.93333333  0.86666667  0.98925525  1.0
  Fe3+  Fe6  1  0.00000000  0.00000000  0.07258858  1.0
  Fe3+  Fe6  1  0.00000000  0.00000000  0.57258858  1.0
  Fe3+  Fe6  1  0.00000000  0.20000000  0.07258858  1.0
  Fe3+  Fe6  1  0.00000000  0.20000000  0.57258858  1.0
  Fe3+  Fe6  1  0.00000000  0.40000000  0.07258858  1.0
  Fe3+  Fe6  1  0.00000000  0.40000000  0.57258858  1.0
  Fe3+  Fe6  1  0.00000000  0.60000000  0.07258858  1.0
  Fe3+  Fe6  1  0.00000000  0.60000000  0.57258859  1.0
  Fe3+  Fe6  1  0.00000000  0.80000000  0.07258858  1.0
  Fe3+  Fe6  1  0.00000000  0.80000000  0.57258859  1.0
  Fe3+  Fe6  1  0.20000000  0.00000000  0.07258858  1.0
  Fe3+  Fe6  1  0.20000000  0.00000000  0.57258858  1.0
  Fe3+  Fe6  1  0.20000000  0.20000000  0.07258858  1.0
  Fe3+  Fe6  1  0.20000000  0.20000000  0.57258858  1.0
  Fe3+  Fe6  1  0.20000000  0.40000000  0.07258858  1.0
  Fe3+  Fe6  1  0.20000000  0.40000000  0.57258859  1.0
  Fe3+  Fe6  1  0.20000000  0.60000000  0.07258858  1.0
  Fe3+  Fe6  1  0.20000000  0.60000000  0.57258859  1.0
  Fe3+  Fe6  1  0.20000000  0.80000000  0.07258858  1.0
  Fe3+  Fe6  1  0.20000000  0.80000000  0.57258858  1.0
  Fe3+  Fe6  1  0.40000000  0.00000000  0.07258858  1.0
  Fe3+  Fe6  1  0.40000000  0.00000000  0.57258858  1.0
  Fe3+  Fe6  1  0.40000000  0.20000000  0.07258858  1.0
  Fe3+  Fe6  1  0.40000000  0.20000000  0.57258859  1.0
  Fe3+  Fe6  1  0.40000000  0.40000000  0.07258858  1.0
  Fe3+  Fe6  1  0.40000000  0.40000000  0.57258859  1.0
  Fe3+  Fe6  1  0.40000000  0.60000000  0.07258858  1.0
  Fe3+  Fe6  1  0.40000000  0.60000000  0.57258858  1.0
  Fe3+  Fe6  1  0.40000000  0.80000000  0.07258858  1.0
  Fe3+  Fe6  1  0.40000000  0.80000000  0.57258858  1.0
  Fe3+  Fe6  1  0.60000000  0.00000000  0.07258858  1.0
  Fe3+  Fe6  1  0.60000000  0.00000000  0.57258859  1.0
  Fe3+  Fe6  1  0.60000000  0.20000000  0.07258858  1.0
  Fe3+  Fe6  1  0.60000000  0.20000000  0.57258859  1.0
  Fe3+  Fe6  1  0.60000000  0.40000000  0.07258858  1.0
  Fe3+  Fe6  1  0.60000000  0.40000000  0.57258858  1.0
  Fe3+  Fe6  1  0.60000000  0.60000000  0.07258858  1.0
  Fe3+  Fe6  1  0.60000000  0.60000000  0.57258858  1.0
  Fe3+  Fe6  1  0.60000000  0.80000000  0.07258858  1.0
  Fe3+  Fe6  1  0.60000000  0.80000000  0.57258858  1.0
  Fe3+  Fe6  1  0.80000000  0.00000000  0.07258858  1.0
  Fe3+  Fe6  1  0.80000000  0.00000000  0.57258859  1.0
  Fe3+  Fe6  1  0.80000000  0.20000000  0.07258858  1.0
  Fe3+  Fe6  1  0.80000000  0.20000000  0.57258858  1.0
  Fe3+  Fe6  1  0.80000000  0.40000000  0.07258858  1.0
  Fe3+  Fe6  1  0.80000000  0.40000000  0.57258858  1.0
  Fe3+  Fe6  1  0.80000000  0.60000000  0.07258858  1.0
  Fe3+  Fe6  1  0.80000000  0.60000000  0.57258858  1.0
  Fe3+  Fe6  1  0.80000000  0.80000000  0.07258858  1.0
  Fe3+  Fe6  1  0.80000000  0.80000000  0.57258858  1.0
  Fe3+  Fe7  1  0.06666667  0.13333333  0.01074475  1.0
  Fe3+  Fe7  1  0.06666667  0.13333333  0.51074475  1.0
  Fe3+  Fe7  1  0.06666667  0.33333333  0.01074475  1.0
  Fe3+  Fe7  1  0.06666667  0.33333333  0.51074475  1.0
  Fe3+  Fe7  1  0.06666667  0.53333333  0.01074475  1.0
  Fe3+  Fe7  1  0.06666667  0.53333333  0.51074475  1.0
  Fe3+  Fe7  1  0.06666667  0.73333333  0.01074475  1.0
  Fe3+  Fe7  1  0.06666667  0.73333333  0.51074475  1.0
  Fe3+  Fe7  1  0.06666667  0.93333333  0.01074475  1.0
  Fe3+  Fe7  1  0.06666667  0.93333333  0.51074475  1.0
  Fe3+  Fe7  1  0.26666667  0.13333333  0.01074475  1.0
  Fe3+  Fe7  1  0.26666667  0.13333333  0.51074475  1.0
  Fe3+  Fe7  1  0.26666667  0.33333333  0.01074475  1.0
  Fe3+  Fe7  1  0.26666667  0.33333333  0.51074475  1.0
  Fe3+  Fe7  1  0.26666667  0.53333333  0.01074475  1.0
  Fe3+  Fe7  1  0.26666667  0.53333333  0.51074475  1.0
  Fe3+  Fe7  1  0.26666667  0.73333333  0.01074475  1.0
  Fe3+  Fe7  1  0.26666667  0.73333333  0.51074475  1.0
  Fe3+  Fe7  1  0.26666667  0.93333333  0.01074475  1.0
  Fe3+  Fe7  1  0.26666667  0.93333333  0.51074475  1.0
  Fe3+  Fe7  1  0.46666667  0.13333333  0.01074475  1.0
  Fe3+  Fe7  1  0.46666667  0.13333333  0.51074475  1.0
  Fe3+  Fe7  1  0.46666667  0.33333333  0.01074475  1.0
  Fe3+  Fe7  1  0.46666667  0.33333333  0.51074475  1.0
  Fe3+  Fe7  1  0.46666667  0.53333333  0.01074475  1.0
  Fe3+  Fe7  1  0.46666667  0.53333333  0.51074475  1.0
  Fe3+  Fe7  1  0.46666667  0.73333333  0.01074475  1.0
  Fe3+  Fe7  1  0.46666667  0.73333333  0.51074475  1.0
  Fe3+  Fe7  1  0.46666667  0.93333333  0.01074475  1.0
  Fe3+  Fe7  1  0.46666667  0.93333333  0.51074475  1.0
  Fe3+  Fe7  1  0.66666667  0.13333333  0.01074475  1.0
  Fe3+  Fe7  1  0.66666667  0.13333333  0.51074475  1.0
  Fe3+  Fe7  1  0.66666667  0.33333333  0.01074475  1.0
  Fe3+  Fe7  1  0.66666667  0.33333333  0.51074475  1.0
  Fe3+  Fe7  1  0.66666667  0.53333333  0.01074475  1.0
  Fe3+  Fe7  1  0.66666667  0.53333333  0.51074475  1.0
  Fe3+  Fe7  1  0.66666667  0.73333333  0.01074475  1.0
  Fe3+  Fe7  1  0.66666667  0.73333333  0.51074475  1.0
  Fe3+  Fe7  1  0.66666667  0.93333333  0.01074475  1.0
  Fe3+  Fe7  1  0.66666667  0.93333333  0.51074475  1.0
  Fe3+  Fe7  1  0.86666667  0.13333333  0.01074475  1.0
  Fe3+  Fe7  1  0.86666667  0.13333333  0.51074475  1.0
  Fe3+  Fe7  1  0.86666667  0.33333333  0.01074475  1.0
  Fe3+  Fe7  1  0.86666667  0.33333333  0.51074475  1.0
  Fe3+  Fe7  1  0.86666667  0.53333333  0.01074475  1.0
  Fe3+  Fe7  1  0.86666667  0.53333333  0.51074475  1.0
  Fe3+  Fe7  1  0.86666667  0.73333333  0.01074475  1.0
  Fe3+  Fe7  1  0.86666667  0.73333333  0.51074475  1.0
  Fe3+  Fe7  1  0.86666667  0.93333333  0.01074475  1.0
  Fe3+  Fe7  1  0.86666667  0.93333333  0.51074475  1.0
  Fe3+  Fe8  1  0.13333333  0.06666667  0.09407808  1.0
  Fe3+  Fe8  1  0.13333333  0.06666667  0.59407808  1.0
  Fe3+  Fe8  1  0.13333333  0.26666667  0.09407808  1.0
  Fe3+  Fe8  1  0.13333333  0.26666667  0.59407808  1.0
  Fe3+  Fe8  1  0.13333333  0.46666667  0.09407808  1.0
  Fe3+  Fe8  1  0.13333333  0.46666667  0.59407808  1.0
  Fe3+  Fe8  1  0.13333333  0.66666667  0.09407808  1.0
  Fe3+  Fe8  1  0.13333333  0.66666667  0.59407808  1.0
  Fe3+  Fe8  1  0.13333333  0.86666667  0.09407808  1.0
  Fe3+  Fe8  1  0.13333333  0.86666667  0.59407808  1.0
  Fe3+  Fe8  1  0.33333333  0.06666667  0.09407808  1.0
  Fe3+  Fe8  1  0.33333333  0.06666667  0.59407808  1.0
  Fe3+  Fe8  1  0.33333333  0.26666667  0.09407808  1.0
  Fe3+  Fe8  1  0.33333333  0.26666667  0.59407808  1.0
  Fe3+  Fe8  1  0.33333333  0.46666667  0.09407808  1.0
  Fe3+  Fe8  1  0.33333333  0.46666667  0.59407808  1.0
  Fe3+  Fe8  1  0.33333333  0.66666667  0.09407808  1.0
  Fe3+  Fe8  1  0.33333333  0.66666667  0.59407808  1.0
  Fe3+  Fe8  1  0.33333333  0.86666667  0.09407808  1.0
  Fe3+  Fe8  1  0.33333333  0.86666667  0.59407808  1.0
  Fe3+  Fe8  1  0.53333333  0.06666667  0.09407808  1.0
  Fe3+  Fe8  1  0.53333333  0.06666667  0.59407808  1.0
  Fe3+  Fe8  1  0.53333333  0.26666667  0.09407808  1.0
  Fe3+  Fe8  1  0.53333333  0.26666667  0.59407808  1.0
  Fe3+  Fe8  1  0.53333333  0.46666667  0.09407808  1.0
  Fe3+  Fe8  1  0.53333333  0.46666667  0.59407808  1.0
  Fe3+  Fe8  1  0.53333333  0.66666667  0.09407808  1.0
  Fe3+  Fe8  1  0.53333333  0.66666667  0.59407808  1.0
  Fe3+  Fe8  1  0.53333333  0.86666667  0.09407808  1.0
  Fe3+  Fe8  1  0.53333333  0.86666667  0.59407808  1.0
  Fe3+  Fe8  1  0.73333333  0.06666667  0.09407808  1.0
  Fe3+  Fe8  1  0.73333333  0.06666667  0.59407808  1.0
  Fe3+  Fe8  1  0.73333333  0.26666667  0.09407808  1.0
  Fe3+  Fe8  1  0.73333333  0.26666667  0.59407808  1.0
  Fe3+  Fe8  1  0.73333333  0.46666667  0.09407808  1.0
  Fe3+  Fe8  1  0.73333333  0.46666667  0.59407808  1.0
  Fe3+  Fe8  1  0.73333333  0.66666667  0.09407808  1.0
  Fe3+  Fe8  1  0.73333333  0.66666667  0.59407808  1.0
  Fe3+  Fe8  1  0.73333333  0.86666667  0.09407808  1.0
  Fe3+  Fe8  1  0.73333333  0.86666667  0.59407808  1.0
  Fe3+  Fe8  1  0.93333333  0.06666667  0.09407808  1.0
  Fe3+  Fe8  1  0.93333333  0.06666667  0.59407808  1.0
  Fe3+  Fe8  1  0.93333333  0.26666667  0.09407808  1.0
  Fe3+  Fe8  1  0.93333333  0.26666667  0.59407808  1.0
  Fe3+  Fe8  1  0.93333333  0.46666667  0.09407808  1.0
  Fe3+  Fe8  1  0.93333333  0.46666667  0.59407808  1.0
  Fe3+  Fe8  1  0.93333333  0.66666667  0.09407808  1.0
  Fe3+  Fe8  1  0.93333333  0.66666667  0.59407808  1.0
  Fe3+  Fe8  1  0.93333333  0.86666667  0.09407808  1.0
  Fe3+  Fe8  1  0.93333333  0.86666667  0.59407808  1.0
  Fe3+  Fe9  1  0.06666667  0.13333333  0.15592192  1.0
  Fe3+  Fe9  1  0.06666667  0.13333333  0.65592192  1.0
  Fe3+  Fe9  1  0.06666667  0.33333333  0.15592192  1.0
  Fe3+  Fe9  1  0.06666667  0.33333333  0.65592192  1.0
  Fe3+  Fe9  1  0.06666667  0.53333333  0.15592192  1.0
  Fe3+  Fe9  1  0.06666667  0.53333333  0.65592192  1.0
  Fe3+  Fe9  1  0.06666667  0.73333333  0.15592192  1.0
  Fe3+  Fe9  1  0.06666667  0.73333333  0.65592192  1.0
  Fe3+  Fe9  1  0.06666667  0.93333333  0.15592192  1.0
  Fe3+  Fe9  1  0.06666667  0.93333333  0.65592192  1.0
  Fe3+  Fe9  1  0.26666667  0.13333333  0.15592192  1.0
  Fe3+  Fe9  1  0.26666667  0.13333333  0.65592192  1.0
  Fe3+  Fe9  1  0.26666667  0.33333333  0.15592192  1.0
  Fe3+  Fe9  1  0.26666667  0.33333333  0.65592192  1.0
  Fe3+  Fe9  1  0.26666667  0.53333333  0.15592192  1.0
  Fe3+  Fe9  1  0.26666667  0.53333333  0.65592192  1.0
  Fe3+  Fe9  1  0.26666667  0.73333333  0.15592192  1.0
  Fe3+  Fe9  1  0.26666667  0.73333333  0.65592192  1.0
  Fe3+  Fe9  1  0.26666667  0.93333333  0.15592192  1.0
  Fe3+  Fe9  1  0.26666667  0.93333333  0.65592192  1.0
  Fe3+  Fe9  1  0.46666667  0.13333333  0.15592192  1.0
  Fe3+  Fe9  1  0.46666667  0.13333333  0.65592192  1.0
  Fe3+  Fe9  1  0.46666667  0.33333333  0.15592192  1.0
  Fe3+  Fe9  1  0.46666667  0.33333333  0.65592192  1.0
  Fe3+  Fe9  1  0.46666667  0.53333333  0.15592192  1.0
  Fe3+  Fe9  1  0.46666667  0.53333333  0.65592192  1.0
  Fe3+  Fe9  1  0.46666667  0.73333333  0.15592192  1.0
  Fe3+  Fe9  1  0.46666667  0.73333333  0.65592192  1.0
  Fe3+  Fe9  1  0.46666667  0.93333333  0.15592192  1.0
  Fe3+  Fe9  1  0.46666667  0.93333333  0.65592192  1.0
  Fe3+  Fe9  1  0.66666667  0.13333333  0.15592192  1.0
  Fe3+  Fe9  1  0.66666667  0.13333333  0.65592192  1.0
  Fe3+  Fe9  1  0.66666667  0.33333333  0.15592192  1.0
  Fe3+  Fe9  1  0.66666667  0.33333333  0.65592192  1.0
  Fe3+  Fe9  1  0.66666667  0.53333333  0.15592192  1.0
  Fe3+  Fe9  1  0.66666667  0.53333333  0.65592192  1.0
  Fe3+  Fe9  1  0.66666667  0.73333333  0.15592192  1.0
  Fe3+  Fe9  1  0.66666667  0.73333333  0.65592192  1.0
  Fe3+  Fe9  1  0.66666667  0.93333333  0.15592192  1.0
  Fe3+  Fe9  1  0.66666667  0.93333333  0.65592192  1.0
  Fe3+  Fe9  1  0.86666667  0.13333333  0.15592192  1.0
  Fe3+  Fe9  1  0.86666667  0.13333333  0.65592192  1.0
  Fe3+  Fe9  1  0.86666667  0.33333333  0.15592192  1.0
  Fe3+  Fe9  1  0.86666667  0.33333333  0.65592192  1.0
  Fe3+  Fe9  1  0.86666667  0.53333333  0.15592192  1.0
  Fe3+  Fe9  1  0.86666667  0.53333333  0.65592192  1.0
  Fe3+  Fe9  1  0.86666667  0.73333333  0.15592192  1.0
  Fe3+  Fe9  1  0.86666667  0.73333333  0.65592192  1.0
  Fe3+  Fe9  1  0.86666667  0.93333333  0.15592192  1.0
  Fe3+  Fe9  1  0.86666667  0.93333333  0.65592192  1.0
  Fe3+  Fe10  1  0.13333333  0.06666667  0.23925525  1.0
  Fe3+  Fe10  1  0.13333333  0.06666667  0.73925525  1.0
  Fe3+  Fe10  1  0.13333333  0.26666667  0.23925525  1.0
  Fe3+  Fe10  1  0.13333333  0.26666667  0.73925525  1.0
  Fe3+  Fe10  1  0.13333333  0.46666667  0.23925525  1.0
  Fe3+  Fe10  1  0.13333333  0.46666667  0.73925525  1.0
  Fe3+  Fe10  1  0.13333333  0.66666667  0.23925525  1.0
  Fe3+  Fe10  1  0.13333333  0.66666667  0.73925525  1.0
  Fe3+  Fe10  1  0.13333333  0.86666667  0.23925525  1.0
  Fe3+  Fe10  1  0.13333333  0.86666667  0.73925525  1.0
  Fe3+  Fe10  1  0.33333333  0.06666667  0.23925525  1.0
  Fe3+  Fe10  1  0.33333333  0.06666667  0.73925525  1.0
  Fe3+  Fe10  1  0.33333333  0.26666667  0.23925525  1.0
  Fe3+  Fe10  1  0.33333333  0.26666667  0.73925525  1.0
  Fe3+  Fe10  1  0.33333333  0.46666667  0.23925525  1.0
  Fe3+  Fe10  1  0.33333333  0.46666667  0.73925525  1.0
  Fe3+  Fe10  1  0.33333333  0.66666667  0.23925525  1.0
  Fe3+  Fe10  1  0.33333333  0.66666667  0.73925525  1.0
  Fe3+  Fe10  1  0.33333333  0.86666667  0.23925525  1.0
  Fe3+  Fe10  1  0.33333333  0.86666667  0.73925525  1.0
  Fe3+  Fe10  1  0.53333333  0.06666667  0.23925525  1.0
  Fe3+  Fe10  1  0.53333333  0.06666667  0.73925525  1.0
  Fe3+  Fe10  1  0.53333333  0.26666667  0.23925525  1.0
  Fe3+  Fe10  1  0.53333333  0.26666667  0.73925525  1.0
  Fe3+  Fe10  1  0.53333333  0.46666667  0.23925525  1.0
  Fe3+  Fe10  1  0.53333333  0.46666667  0.73925525  1.0
  Fe3+  Fe10  1  0.53333333  0.66666667  0.23925525  1.0
  Fe3+  Fe10  1  0.53333333  0.66666667  0.73925525  1.0
  Fe3+  Fe10  1  0.53333333  0.86666667  0.23925525  1.0
  Fe3+  Fe10  1  0.53333333  0.86666667  0.73925525  1.0
  Fe3+  Fe10  1  0.73333333  0.06666667  0.23925525  1.0
  Fe3+  Fe10  1  0.73333333  0.06666667  0.73925525  1.0
  Fe3+  Fe10  1  0.73333333  0.26666667  0.23925525  1.0
  Fe3+  Fe10  1  0.73333333  0.26666667  0.73925525  1.0
  Fe3+  Fe10  1  0.73333333  0.46666667  0.23925525  1.0
  Fe3+  Fe10  1  0.73333333  0.46666667  0.73925525  1.0
  Fe3+  Fe10  1  0.73333333  0.66666667  0.23925525  1.0
  Fe3+  Fe10  1  0.73333333  0.66666667  0.73925525  1.0
  Fe3+  Fe10  1  0.73333333  0.86666667  0.23925525  1.0
  Fe3+  Fe10  1  0.73333333  0.86666667  0.73925525  1.0
  Fe3+  Fe10  1  0.93333333  0.06666667  0.23925525  1.0
  Fe3+  Fe10  1  0.93333333  0.06666667  0.73925525  1.0
  Fe3+  Fe10  1  0.93333333  0.26666667  0.23925525  1.0
  Fe3+  Fe10  1  0.93333333  0.26666667  0.73925525  1.0
  Fe3+  Fe10  1  0.93333333  0.46666667  0.23925525  1.0
  Fe3+  Fe10  1  0.93333333  0.46666667  0.73925525  1.0
  Fe3+  Fe10  1  0.93333333  0.66666667  0.23925525  1.0
  Fe3+  Fe10  1  0.93333333  0.66666667  0.73925525  1.0
  Fe3+  Fe10  1  0.93333333  0.86666667  0.23925525  1.0
  Fe3+  Fe10  1  0.93333333  0.86666667  0.73925525  1.0
  Fe3+  Fe11  1  0.00000000  0.00000000  0.17741141  1.0
  Fe3+  Fe11  1  0.00000000  0.00000000  0.67741142  1.0
  Fe3+  Fe11  1  0.00000000  0.20000000  0.17741141  1.0
  Fe3+  Fe11  1  0.00000000  0.20000000  0.67741142  1.0
  Fe3+  Fe11  1  0.00000000  0.40000000  0.17741141  1.0
  Fe3+  Fe11  1  0.00000000  0.40000000  0.67741142  1.0
  Fe3+  Fe11  1  0.00000000  0.60000000  0.17741141  1.0
  Fe3+  Fe11  1  0.00000000  0.60000000  0.67741142  1.0
  Fe3+  Fe11  1  0.00000000  0.80000000  0.17741141  1.0
  Fe3+  Fe11  1  0.00000000  0.80000000  0.67741142  1.0
  Fe3+  Fe11  1  0.20000000  0.00000000  0.17741141  1.0
  Fe3+  Fe11  1  0.20000000  0.00000000  0.67741142  1.0
  Fe3+  Fe11  1  0.20000000  0.20000000  0.17741141  1.0
  Fe3+  Fe11  1  0.20000000  0.20000000  0.67741142  1.0
  Fe3+  Fe11  1  0.20000000  0.40000000  0.17741141  1.0
  Fe3+  Fe11  1  0.20000000  0.40000000  0.67741142  1.0
  Fe3+  Fe11  1  0.20000000  0.60000000  0.17741141  1.0
  Fe3+  Fe11  1  0.20000000  0.60000000  0.67741142  1.0
  Fe3+  Fe11  1  0.20000000  0.80000000  0.17741142  1.0
  Fe3+  Fe11  1  0.20000000  0.80000000  0.67741142  1.0
  Fe3+  Fe11  1  0.40000000  0.00000000  0.17741141  1.0
  Fe3+  Fe11  1  0.40000000  0.00000000  0.67741142  1.0
  Fe3+  Fe11  1  0.40000000  0.20000000  0.17741141  1.0
  Fe3+  Fe11  1  0.40000000  0.20000000  0.67741142  1.0
  Fe3+  Fe11  1  0.40000000  0.40000000  0.17741141  1.0
  Fe3+  Fe11  1  0.40000000  0.40000000  0.67741142  1.0
  Fe3+  Fe11  1  0.40000000  0.60000000  0.17741142  1.0
  Fe3+  Fe11  1  0.40000000  0.60000000  0.67741142  1.0
  Fe3+  Fe11  1  0.40000000  0.80000000  0.17741142  1.0
  Fe3+  Fe11  1  0.40000000  0.80000000  0.67741142  1.0
  Fe3+  Fe11  1  0.60000000  0.00000000  0.17741141  1.0
  Fe3+  Fe11  1  0.60000000  0.00000000  0.67741142  1.0
  Fe3+  Fe11  1  0.60000000  0.20000000  0.17741141  1.0
  Fe3+  Fe11  1  0.60000000  0.20000000  0.67741142  1.0
  Fe3+  Fe11  1  0.60000000  0.40000000  0.17741142  1.0
  Fe3+  Fe11  1  0.60000000  0.40000000  0.67741142  1.0
  Fe3+  Fe11  1  0.60000000  0.60000000  0.17741142  1.0
  Fe3+  Fe11  1  0.60000000  0.60000000  0.67741142  1.0
  Fe3+  Fe11  1  0.60000000  0.80000000  0.17741141  1.0
  Fe3+  Fe11  1  0.60000000  0.80000000  0.67741142  1.0
  Fe3+  Fe11  1  0.80000000  0.00000000  0.17741141  1.0
  Fe3+  Fe11  1  0.80000000  0.00000000  0.67741142  1.0
  Fe3+  Fe11  1  0.80000000  0.20000000  0.17741142  1.0
  Fe3+  Fe11  1  0.80000000  0.20000000  0.67741142  1.0
  Fe3+  Fe11  1  0.80000000  0.40000000  0.17741142  1.0
  Fe3+  Fe11  1  0.80000000  0.40000000  0.67741142  1.0
  Fe3+  Fe11  1  0.80000000  0.60000000  0.17741141  1.0
  Fe3+  Fe11  1  0.80000000  0.60000000  0.67741142  1.0
  Fe3+  Fe11  1  0.80000000  0.80000000  0.17741142  1.0
  Fe3+  Fe11  1  0.80000000  0.80000000  0.67741142  1.0
  O2-  O12  1  0.13891982  0.13891982  0.37500000  1.0
  O2-  O12  1  0.13891982  0.13891982  0.87500000  1.0
  O2-  O12  1  0.13891982  0.33891982  0.37500000  1.0
  O2-  O12  1  0.13891982  0.33891982  0.87500000  1.0
  O2-  O12  1  0.13891982  0.53891982  0.37500000  1.0
  O2-  O12  1  0.13891982  0.53891982  0.87500000  1.0
  O2-  O12  1  0.13891982  0.73891982  0.37500000  1.0
  O2-  O12  1  0.13891982  0.73891982  0.87500000  1.0
  O2-  O12  1  0.13891982  0.93891982  0.37500000  1.0
  O2-  O12  1  0.13891982  0.93891982  0.87500000  1.0
  O2-  O12  1  0.33891982  0.13891982  0.37500000  1.0
  O2-  O12  1  0.33891982  0.13891982  0.87500000  1.0
  O2-  O12  1  0.33891982  0.33891982  0.37500000  1.0
  O2-  O12  1  0.33891982  0.33891982  0.87500000  1.0
  O2-  O12  1  0.33891982  0.53891982  0.37500000  1.0
  O2-  O12  1  0.33891982  0.53891982  0.87500000  1.0
  O2-  O12  1  0.33891982  0.73891982  0.37500000  1.0
  O2-  O12  1  0.33891982  0.73891982  0.87500000  1.0
  O2-  O12  1  0.33891982  0.93891982  0.37500000  1.0
  O2-  O12  1  0.33891982  0.93891982  0.87500000  1.0
  O2-  O12  1  0.53891982  0.13891982  0.37500000  1.0
  O2-  O12  1  0.53891982  0.13891982  0.87500000  1.0
  O2-  O12  1  0.53891982  0.33891982  0.37500000  1.0
  O2-  O12  1  0.53891982  0.33891982  0.87500000  1.0
  O2-  O12  1  0.53891982  0.53891982  0.37500000  1.0
  O2-  O12  1  0.53891982  0.53891982  0.87500000  1.0
  O2-  O12  1  0.53891982  0.73891982  0.37500000  1.0
  O2-  O12  1  0.53891982  0.73891982  0.87500000  1.0
  O2-  O12  1  0.53891982  0.93891982  0.37500000  1.0
  O2-  O12  1  0.53891982  0.93891982  0.87500000  1.0
  O2-  O12  1  0.73891982  0.13891982  0.37500000  1.0
  O2-  O12  1  0.73891982  0.13891982  0.87500000  1.0
  O2-  O12  1  0.73891982  0.33891982  0.37500000  1.0
  O2-  O12  1  0.73891982  0.33891982  0.87500000  1.0
  O2-  O12  1  0.73891982  0.53891982  0.37500000  1.0
  O2-  O12  1  0.73891982  0.53891982  0.87500000  1.0
  O2-  O12  1  0.73891982  0.73891982  0.37500000  1.0
  O2-  O12  1  0.73891982  0.73891982  0.87500000  1.0
  O2-  O12  1  0.73891982  0.93891982  0.37500000  1.0
  O2-  O12  1  0.73891982  0.93891982  0.87500000  1.0
  O2-  O12  1  0.93891982  0.13891982  0.37500000  1.0
  O2-  O12  1  0.93891982  0.13891982  0.87500000  1.0
  O2-  O12  1  0.93891982  0.33891982  0.37500000  1.0
  O2-  O12  1  0.93891982  0.33891982  0.87500000  1.0
  O2-  O12  1  0.93891982  0.53891982  0.37500000  1.0
  O2-  O12  1  0.93891982  0.53891982  0.87500000  1.0
  O2-  O12  1  0.93891982  0.73891982  0.37500000  1.0
  O2-  O12  1  0.93891982  0.73891982  0.87500000  1.0
  O2-  O12  1  0.93891982  0.93891982  0.37500000  1.0
  O2-  O12  1  0.93891982  0.93891982  0.87500000  1.0
  O2-  O13  1  0.06108018  0.00000000  0.37500000  1.0
  O2-  O13  1  0.06108018  0.00000000  0.87500000  1.0
  O2-  O13  1  0.06108018  0.20000000  0.37500000  1.0
  O2-  O13  1  0.06108018  0.20000000  0.87500000  1.0
  O2-  O13  1  0.06108018  0.40000000  0.37500000  1.0
  O2-  O13  1  0.06108018  0.40000000  0.87500000  1.0
  O2-  O13  1  0.06108018  0.60000000  0.37500000  1.0
  O2-  O13  1  0.06108018  0.60000000  0.87500000  1.0
  O2-  O13  1  0.06108018  0.80000000  0.37500000  1.0
  O2-  O13  1  0.06108018  0.80000000  0.87500000  1.0
  O2-  O13  1  0.26108018  0.00000000  0.37500000  1.0
  O2-  O13  1  0.26108018  0.00000000  0.87500000  1.0
  O2-  O13  1  0.26108018  0.20000000  0.37500000  1.0
  O2-  O13  1  0.26108018  0.20000000  0.87500000  1.0
  O2-  O13  1  0.26108018  0.40000000  0.37500000  1.0
  O2-  O13  1  0.26108018  0.40000000  0.87500000  1.0
  O2-  O13  1  0.26108018  0.60000000  0.37500000  1.0
  O2-  O13  1  0.26108018  0.60000000  0.87500000  1.0
  O2-  O13  1  0.26108018  0.80000000  0.37500000  1.0
  O2-  O13  1  0.26108018  0.80000000  0.87500000  1.0
  O2-  O13  1  0.46108018  0.00000000  0.37500000  1.0
  O2-  O13  1  0.46108018  0.00000000  0.87500000  1.0
  O2-  O13  1  0.46108018  0.20000000  0.37500000  1.0
  O2-  O13  1  0.46108018  0.20000000  0.87500000  1.0
  O2-  O13  1  0.46108018  0.40000000  0.37500000  1.0
  O2-  O13  1  0.46108018  0.40000000  0.87500000  1.0
  O2-  O13  1  0.46108018  0.60000000  0.37500000  1.0
  O2-  O13  1  0.46108018  0.60000000  0.87500000  1.0
  O2-  O13  1  0.46108018  0.80000000  0.37500000  1.0
  O2-  O13  1  0.46108018  0.80000000  0.87500000  1.0
  O2-  O13  1  0.66108018  0.00000000  0.37500000  1.0
  O2-  O13  1  0.66108018  0.00000000  0.87500000  1.0
  O2-  O13  1  0.66108018  0.20000000  0.37500000  1.0
  O2-  O13  1  0.66108018  0.20000000  0.87500000  1.0
  O2-  O13  1  0.66108018  0.40000000  0.37500000  1.0
  O2-  O13  1  0.66108018  0.40000000  0.87500000  1.0
  O2-  O13  1  0.66108018  0.60000000  0.37500000  1.0
  O2-  O13  1  0.66108018  0.60000000  0.87500000  1.0
  O2-  O13  1  0.66108018  0.80000000  0.37500000  1.0
  O2-  O13  1  0.66108018  0.80000000  0.87500000  1.0
  O2-  O13  1  0.86108018  0.00000000  0.37500000  1.0
  O2-  O13  1  0.86108018  0.00000000  0.87500000  1.0
  O2-  O13  1  0.86108018  0.20000000  0.37500000  1.0
  O2-  O13  1  0.86108018  0.20000000  0.87500000  1.0
  O2-  O13  1  0.86108018  0.40000000  0.37500000  1.0
  O2-  O13  1  0.86108018  0.40000000  0.87500000  1.0
  O2-  O13  1  0.86108018  0.60000000  0.37500000  1.0
  O2-  O13  1  0.86108018  0.60000000  0.87500000  1.0
  O2-  O13  1  0.86108018  0.80000000  0.37500000  1.0
  O2-  O13  1  0.86108018  0.80000000  0.87500000  1.0
  O2-  O14  1  0.13333333  0.00558649  0.29166666  1.0
  O2-  O14  1  0.13333333  0.00558649  0.79166667  1.0
  O2-  O14  1  0.13333333  0.20558649  0.29166666  1.0
  O2-  O14  1  0.13333333  0.20558649  0.79166667  1.0
  O2-  O14  1  0.13333333  0.40558649  0.29166666  1.0
  O2-  O14  1  0.13333333  0.40558649  0.79166667  1.0
  O2-  O14  1  0.13333333  0.60558649  0.29166666  1.0
  O2-  O14  1  0.13333333  0.60558649  0.79166667  1.0
  O2-  O14  1  0.13333333  0.80558649  0.29166666  1.0
  O2-  O14  1  0.13333333  0.80558649  0.79166667  1.0
  O2-  O14  1  0.33333333  0.00558649  0.29166666  1.0
  O2-  O14  1  0.33333333  0.00558649  0.79166667  1.0
  O2-  O14  1  0.33333333  0.20558649  0.29166666  1.0
  O2-  O14  1  0.33333333  0.20558649  0.79166667  1.0
  O2-  O14  1  0.33333333  0.40558649  0.29166666  1.0
  O2-  O14  1  0.33333333  0.40558649  0.79166667  1.0
  O2-  O14  1  0.33333333  0.60558649  0.29166666  1.0
  O2-  O14  1  0.33333333  0.60558649  0.79166667  1.0
  O2-  O14  1  0.33333333  0.80558649  0.29166666  1.0
  O2-  O14  1  0.33333333  0.80558649  0.79166666  1.0
  O2-  O14  1  0.53333333  0.00558649  0.29166666  1.0
  O2-  O14  1  0.53333333  0.00558649  0.79166667  1.0
  O2-  O14  1  0.53333333  0.20558649  0.29166666  1.0
  O2-  O14  1  0.53333333  0.20558649  0.79166667  1.0
  O2-  O14  1  0.53333333  0.40558649  0.29166666  1.0
  O2-  O14  1  0.53333333  0.40558649  0.79166667  1.0
  O2-  O14  1  0.53333333  0.60558649  0.29166666  1.0
  O2-  O14  1  0.53333333  0.60558649  0.79166666  1.0
  O2-  O14  1  0.53333333  0.80558649  0.29166666  1.0
  O2-  O14  1  0.53333333  0.80558649  0.79166666  1.0
  O2-  O14  1  0.73333333  0.00558649  0.29166666  1.0
  O2-  O14  1  0.73333333  0.00558649  0.79166667  1.0
  O2-  O14  1  0.73333333  0.20558649  0.29166666  1.0
  O2-  O14  1  0.73333333  0.20558649  0.79166667  1.0
  O2-  O14  1  0.73333333  0.40558649  0.29166666  1.0
  O2-  O14  1  0.73333333  0.40558649  0.79166666  1.0
  O2-  O14  1  0.73333333  0.60558649  0.29166666  1.0
  O2-  O14  1  0.73333333  0.60558649  0.79166666  1.0
  O2-  O14  1  0.73333333  0.80558649  0.29166666  1.0
  O2-  O14  1  0.73333333  0.80558649  0.79166666  1.0
  O2-  O14  1  0.93333333  0.00558649  0.29166666  1.0
  O2-  O14  1  0.93333333  0.00558649  0.79166667  1.0
  O2-  O14  1  0.93333333  0.20558649  0.29166666  1.0
  O2-  O14  1  0.93333333  0.20558649  0.79166666  1.0
  O2-  O14  1  0.93333333  0.40558649  0.29166666  1.0
  O2-  O14  1  0.93333333  0.40558649  0.79166666  1.0
  O2-  O14  1  0.93333333  0.60558649  0.29166666  1.0
  O2-  O14  1  0.93333333  0.60558649  0.79166666  1.0
  O2-  O14  1  0.93333333  0.80558649  0.29166666  1.0
  O2-  O14  1  0.93333333  0.80558649  0.79166666  1.0
  O2-  O15  1  0.07225315  0.06666667  0.29166666  1.0
  O2-  O15  1  0.07225315  0.06666667  0.79166667  1.0
  O2-  O15  1  0.07225315  0.26666667  0.29166666  1.0
  O2-  O15  1  0.07225315  0.26666667  0.79166667  1.0
  O2-  O15  1  0.07225315  0.46666667  0.29166666  1.0
  O2-  O15  1  0.07225315  0.46666667  0.79166667  1.0
  O2-  O15  1  0.07225315  0.66666667  0.29166666  1.0
  O2-  O15  1  0.07225315  0.66666667  0.79166667  1.0
  O2-  O15  1  0.07225315  0.86666667  0.29166666  1.0
  O2-  O15  1  0.07225315  0.86666667  0.79166667  1.0
  O2-  O15  1  0.27225315  0.06666667  0.29166666  1.0
  O2-  O15  1  0.27225315  0.06666667  0.79166667  1.0
  O2-  O15  1  0.27225315  0.26666667  0.29166666  1.0
  O2-  O15  1  0.27225315  0.26666667  0.79166667  1.0
  O2-  O15  1  0.27225315  0.46666667  0.29166666  1.0
  O2-  O15  1  0.27225315  0.46666667  0.79166667  1.0
  O2-  O15  1  0.27225315  0.66666667  0.29166666  1.0
  O2-  O15  1  0.27225315  0.66666667  0.79166667  1.0
  O2-  O15  1  0.27225315  0.86666667  0.29166666  1.0
  O2-  O15  1  0.27225315  0.86666667  0.79166666  1.0
  O2-  O15  1  0.47225315  0.06666667  0.29166666  1.0
  O2-  O15  1  0.47225315  0.06666667  0.79166667  1.0
  O2-  O15  1  0.47225315  0.26666667  0.29166666  1.0
  O2-  O15  1  0.47225315  0.26666667  0.79166667  1.0
  O2-  O15  1  0.47225315  0.46666667  0.29166666  1.0
  O2-  O15  1  0.47225315  0.46666667  0.79166667  1.0
  O2-  O15  1  0.47225315  0.66666667  0.29166666  1.0
  O2-  O15  1  0.47225315  0.66666667  0.79166666  1.0
  O2-  O15  1  0.47225315  0.86666667  0.29166666  1.0
  O2-  O15  1  0.47225315  0.86666667  0.79166666  1.0
  O2-  O15  1  0.67225315  0.06666667  0.29166666  1.0
  O2-  O15  1  0.67225315  0.06666667  0.79166667  1.0
  O2-  O15  1  0.67225315  0.26666667  0.29166666  1.0
  O2-  O15  1  0.67225315  0.26666667  0.79166667  1.0
  O2-  O15  1  0.67225315  0.46666667  0.29166666  1.0
  O2-  O15  1  0.67225315  0.46666667  0.79166666  1.0
  O2-  O15  1  0.67225315  0.66666667  0.29166666  1.0
  O2-  O15  1  0.67225315  0.66666667  0.79166666  1.0
  O2-  O15  1  0.67225315  0.86666667  0.29166666  1.0
  O2-  O15  1  0.67225315  0.86666667  0.79166666  1.0
  O2-  O15  1  0.87225315  0.06666667  0.29166666  1.0
  O2-  O15  1  0.87225315  0.06666667  0.79166667  1.0
  O2-  O15  1  0.87225315  0.26666667  0.29166666  1.0
  O2-  O15  1  0.87225315  0.26666667  0.79166666  1.0
  O2-  O15  1  0.87225315  0.46666667  0.29166666  1.0
  O2-  O15  1  0.87225315  0.46666667  0.79166666  1.0
  O2-  O15  1  0.87225315  0.66666667  0.29166666  1.0
  O2-  O15  1  0.87225315  0.66666667  0.79166666  1.0
  O2-  O15  1  0.87225315  0.86666667  0.29166666  1.0
  O2-  O15  1  0.87225315  0.86666667  0.79166666  1.0
  O2-  O16  1  0.19441351  0.12774685  0.29166666  1.0
  O2-  O16  1  0.19441351  0.12774685  0.79166667  1.0
  O2-  O16  1  0.19441351  0.32774685  0.29166666  1.0
  O2-  O16  1  0.19441351  0.32774685  0.79166667  1.0
  O2-  O16  1  0.19441351  0.52774685  0.29166666  1.0
  O2-  O16  1  0.19441351  0.52774685  0.79166667  1.0
  O2-  O16  1  0.19441351  0.72774685  0.29166666  1.0
  O2-  O16  1  0.19441351  0.72774685  0.79166667  1.0
  O2-  O16  1  0.19441351  0.92774685  0.29166666  1.0
  O2-  O16  1  0.19441351  0.92774685  0.79166666  1.0
  O2-  O16  1  0.39441351  0.12774685  0.29166666  1.0
  O2-  O16  1  0.39441351  0.12774685  0.79166667  1.0
  O2-  O16  1  0.39441351  0.32774685  0.29166666  1.0
  O2-  O16  1  0.39441351  0.32774685  0.79166667  1.0
  O2-  O16  1  0.39441351  0.52774685  0.29166666  1.0
  O2-  O16  1  0.39441351  0.52774685  0.79166667  1.0
  O2-  O16  1  0.39441351  0.72774685  0.29166666  1.0
  O2-  O16  1  0.39441351  0.72774685  0.79166666  1.0
  O2-  O16  1  0.39441351  0.92774685  0.29166666  1.0
  O2-  O16  1  0.39441351  0.92774685  0.79166666  1.0
  O2-  O16  1  0.59441351  0.12774685  0.29166666  1.0
  O2-  O16  1  0.59441351  0.12774685  0.79166667  1.0
  O2-  O16  1  0.59441351  0.32774685  0.29166666  1.0
  O2-  O16  1  0.59441351  0.32774685  0.79166667  1.0
  O2-  O16  1  0.59441351  0.52774685  0.29166666  1.0
  O2-  O16  1  0.59441351  0.52774685  0.79166666  1.0
  O2-  O16  1  0.59441351  0.72774685  0.29166666  1.0
  O2-  O16  1  0.59441351  0.72774685  0.79166666  1.0
  O2-  O16  1  0.59441351  0.92774685  0.29166666  1.0
  O2-  O16  1  0.59441351  0.92774685  0.79166666  1.0
  O2-  O16  1  0.79441351  0.12774685  0.29166666  1.0
  O2-  O16  1  0.79441351  0.12774685  0.79166667  1.0
  O2-  O16  1  0.79441351  0.32774685  0.29166666  1.0
  O2-  O16  1  0.79441351  0.32774685  0.79166666  1.0
  O2-  O16  1  0.79441351  0.52774685  0.29166666  1.0
  O2-  O16  1  0.79441351  0.52774685  0.79166666  1.0
  O2-  O16  1  0.79441351  0.72774685  0.29166666  1.0
  O2-  O16  1  0.79441351  0.72774685  0.79166666  1.0
  O2-  O16  1  0.79441351  0.92774685  0.29166666  1.0
  O2-  O16  1  0.79441351  0.92774685  0.79166666  1.0
  O2-  O16  1  0.99441351  0.12774685  0.29166666  1.0
  O2-  O16  1  0.99441351  0.12774685  0.79166666  1.0
  O2-  O16  1  0.99441351  0.32774685  0.29166666  1.0
  O2-  O16  1  0.99441351  0.32774685  0.79166666  1.0
  O2-  O16  1  0.99441351  0.52774685  0.29166666  1.0
  O2-  O16  1  0.99441351  0.52774685  0.79166666  1.0
  O2-  O16  1  0.99441351  0.72774685  0.29166666  1.0
  O2-  O16  1  0.99441351  0.72774685  0.79166666  1.0
  O2-  O16  1  0.99441351  0.92774685  0.29166666  1.0
  O2-  O16  1  0.99441351  0.92774685  0.79166666  1.0
  O2-  O17  1  0.00000000  0.06108018  0.37500000  1.0
  O2-  O17  1  0.00000000  0.06108018  0.87500000  1.0
  O2-  O17  1  0.00000000  0.26108018  0.37500000  1.0
  O2-  O17  1  0.00000000  0.26108018  0.87500000  1.0
  O2-  O17  1  0.00000000  0.46108018  0.37500000  1.0
  O2-  O17  1  0.00000000  0.46108018  0.87500000  1.0
  O2-  O17  1  0.00000000  0.66108018  0.37500000  1.0
  O2-  O17  1  0.00000000  0.66108018  0.87500000  1.0
  O2-  O17  1  0.00000000  0.86108018  0.37500000  1.0
  O2-  O17  1  0.00000000  0.86108018  0.87500000  1.0
  O2-  O17  1  0.20000000  0.06108018  0.37500000  1.0
  O2-  O17  1  0.20000000  0.06108018  0.87500000  1.0
  O2-  O17  1  0.20000000  0.26108018  0.37500000  1.0
  O2-  O17  1  0.20000000  0.26108018  0.87500000  1.0
  O2-  O17  1  0.20000000  0.46108018  0.37500000  1.0
  O2-  O17  1  0.20000000  0.46108018  0.87500000  1.0
  O2-  O17  1  0.20000000  0.66108018  0.37500000  1.0
  O2-  O17  1  0.20000000  0.66108018  0.87500000  1.0
  O2-  O17  1  0.20000000  0.86108018  0.37500000  1.0
  O2-  O17  1  0.20000000  0.86108018  0.87500000  1.0
  O2-  O17  1  0.40000000  0.06108018  0.37500000  1.0
  O2-  O17  1  0.40000000  0.06108018  0.87500000  1.0
  O2-  O17  1  0.40000000  0.26108018  0.37500000  1.0
  O2-  O17  1  0.40000000  0.26108018  0.87500000  1.0
  O2-  O17  1  0.40000000  0.46108018  0.37500000  1.0
  O2-  O17  1  0.40000000  0.46108018  0.87500000  1.0
  O2-  O17  1  0.40000000  0.66108018  0.37500000  1.0
  O2-  O17  1  0.40000000  0.66108018  0.87500000  1.0
  O2-  O17  1  0.40000000  0.86108018  0.37500000  1.0
  O2-  O17  1  0.40000000  0.86108018  0.87500000  1.0
  O2-  O17  1  0.60000000  0.06108018  0.37500000  1.0
  O2-  O17  1  0.60000000  0.06108018  0.87500000  1.0
  O2-  O17  1  0.60000000  0.26108018  0.37500000  1.0
  O2-  O17  1  0.60000000  0.26108018  0.87500000  1.0
  O2-  O17  1  0.60000000  0.46108018  0.37500000  1.0
  O2-  O17  1  0.60000000  0.46108018  0.87500000  1.0
  O2-  O17  1  0.60000000  0.66108018  0.37500000  1.0
  O2-  O17  1  0.60000000  0.66108018  0.87500000  1.0
  O2-  O17  1  0.60000000  0.86108018  0.37500000  1.0
  O2-  O17  1  0.60000000  0.86108018  0.87500000  1.0
  O2-  O17  1  0.80000000  0.06108018  0.37500000  1.0
  O2-  O17  1  0.80000000  0.06108018  0.87500000  1.0
  O2-  O17  1  0.80000000  0.26108018  0.37500000  1.0
  O2-  O17  1  0.80000000  0.26108018  0.87500000  1.0
  O2-  O17  1  0.80000000  0.46108018  0.37500000  1.0
  O2-  O17  1  0.80000000  0.46108018  0.87500000  1.0
  O2-  O17  1  0.80000000  0.66108018  0.37500000  1.0
  O2-  O17  1  0.80000000  0.66108018  0.87500000  1.0
  O2-  O17  1  0.80000000  0.86108018  0.37500000  1.0
  O2-  O17  1  0.80000000  0.86108018  0.87500000  1.0
  O2-  O18  1  0.07225315  0.00558649  0.04166666  1.0
  O2-  O18  1  0.07225315  0.00558649  0.54166667  1.0
  O2-  O18  1  0.07225315  0.20558649  0.04166667  1.0
  O2-  O18  1  0.07225315  0.20558649  0.54166667  1.0
  O2-  O18  1  0.07225315  0.40558649  0.04166667  1.0
  O2-  O18  1  0.07225315  0.40558649  0.54166667  1.0
  O2-  O18  1  0.07225315  0.60558649  0.04166666  1.0
  O2-  O18  1  0.07225315  0.60558649  0.54166667  1.0
  O2-  O18  1  0.07225315  0.80558649  0.04166667  1.0
  O2-  O18  1  0.07225315  0.80558649  0.54166667  1.0
  O2-  O18  1  0.27225315  0.00558649  0.04166667  1.0
  O2-  O18  1  0.27225315  0.00558649  0.54166667  1.0
  O2-  O18  1  0.27225315  0.20558649  0.04166667  1.0
  O2-  O18  1  0.27225315  0.20558649  0.54166667  1.0
  O2-  O18  1  0.27225315  0.40558649  0.04166666  1.0
  O2-  O18  1  0.27225315  0.40558649  0.54166667  1.0
  O2-  O18  1  0.27225315  0.60558649  0.04166667  1.0
  O2-  O18  1  0.27225315  0.60558649  0.54166667  1.0
  O2-  O18  1  0.27225315  0.80558649  0.04166667  1.0
  O2-  O18  1  0.27225315  0.80558649  0.54166667  1.0
  O2-  O18  1  0.47225315  0.00558649  0.04166667  1.0
  O2-  O18  1  0.47225315  0.00558649  0.54166667  1.0
  O2-  O18  1  0.47225315  0.20558649  0.04166666  1.0
  O2-  O18  1  0.47225315  0.20558649  0.54166667  1.0
  O2-  O18  1  0.47225315  0.40558649  0.04166667  1.0
  O2-  O18  1  0.47225315  0.40558649  0.54166667  1.0
  O2-  O18  1  0.47225315  0.60558649  0.04166667  1.0
  O2-  O18  1  0.47225315  0.60558649  0.54166667  1.0
  O2-  O18  1  0.47225315  0.80558649  0.04166667  1.0
  O2-  O18  1  0.47225315  0.80558649  0.54166667  1.0
  O2-  O18  1  0.67225315  0.00558649  0.04166666  1.0
  O2-  O18  1  0.67225315  0.00558649  0.54166667  1.0
  O2-  O18  1  0.67225315  0.20558649  0.04166667  1.0
  O2-  O18  1  0.67225315  0.20558649  0.54166667  1.0
  O2-  O18  1  0.67225315  0.40558649  0.04166667  1.0
  O2-  O18  1  0.67225315  0.40558649  0.54166667  1.0
  O2-  O18  1  0.67225315  0.60558649  0.04166667  1.0
  O2-  O18  1  0.67225315  0.60558649  0.54166667  1.0
  O2-  O18  1  0.67225315  0.80558649  0.04166667  1.0
  O2-  O18  1  0.67225315  0.80558649  0.54166667  1.0
  O2-  O18  1  0.87225315  0.00558649  0.04166667  1.0
  O2-  O18  1  0.87225315  0.00558649  0.54166667  1.0
  O2-  O18  1  0.87225315  0.20558649  0.04166667  1.0
  O2-  O18  1  0.87225315  0.20558649  0.54166667  1.0
  O2-  O18  1  0.87225315  0.40558649  0.04166667  1.0
  O2-  O18  1  0.87225315  0.40558649  0.54166667  1.0
  O2-  O18  1  0.87225315  0.60558649  0.04166667  1.0
  O2-  O18  1  0.87225315  0.60558649  0.54166667  1.0
  O2-  O18  1  0.87225315  0.80558649  0.04166666  1.0
  O2-  O18  1  0.87225315  0.80558649  0.54166667  1.0
  O2-  O19  1  0.19441351  0.06666667  0.04166667  1.0
  O2-  O19  1  0.19441351  0.06666667  0.54166667  1.0
  O2-  O19  1  0.19441351  0.26666667  0.04166666  1.0
  O2-  O19  1  0.19441351  0.26666667  0.54166667  1.0
  O2-  O19  1  0.19441351  0.46666667  0.04166667  1.0
  O2-  O19  1  0.19441351  0.46666667  0.54166667  1.0
  O2-  O19  1  0.19441351  0.66666667  0.04166666  1.0
  O2-  O19  1  0.19441351  0.66666667  0.54166667  1.0
  O2-  O19  1  0.19441351  0.86666667  0.04166667  1.0
  O2-  O19  1  0.19441351  0.86666667  0.54166667  1.0
  O2-  O19  1  0.39441351  0.06666667  0.04166666  1.0
  O2-  O19  1  0.39441351  0.06666667  0.54166667  1.0
  O2-  O19  1  0.39441351  0.26666667  0.04166667  1.0
  O2-  O19  1  0.39441351  0.26666667  0.54166667  1.0
  O2-  O19  1  0.39441351  0.46666667  0.04166666  1.0
  O2-  O19  1  0.39441351  0.46666667  0.54166667  1.0
  O2-  O19  1  0.39441351  0.66666667  0.04166667  1.0
  O2-  O19  1  0.39441351  0.66666667  0.54166667  1.0
  O2-  O19  1  0.39441351  0.86666667  0.04166667  1.0
  O2-  O19  1  0.39441351  0.86666667  0.54166667  1.0
  O2-  O19  1  0.59441351  0.06666667  0.04166667  1.0
  O2-  O19  1  0.59441351  0.06666667  0.54166667  1.0
  O2-  O19  1  0.59441351  0.26666667  0.04166666  1.0
  O2-  O19  1  0.59441351  0.26666667  0.54166667  1.0
  O2-  O19  1  0.59441351  0.46666667  0.04166667  1.0
  O2-  O19  1  0.59441351  0.46666667  0.54166667  1.0
  O2-  O19  1  0.59441351  0.66666667  0.04166667  1.0
  O2-  O19  1  0.59441351  0.66666667  0.54166667  1.0
  O2-  O19  1  0.59441351  0.86666667  0.04166666  1.0
  O2-  O19  1  0.59441351  0.86666667  0.54166667  1.0
  O2-  O19  1  0.79441351  0.06666667  0.04166666  1.0
  O2-  O19  1  0.79441351  0.06666667  0.54166667  1.0
  O2-  O19  1  0.79441351  0.26666667  0.04166667  1.0
  O2-  O19  1  0.79441351  0.26666667  0.54166667  1.0
  O2-  O19  1  0.79441351  0.46666667  0.04166667  1.0
  O2-  O19  1  0.79441351  0.46666667  0.54166667  1.0
  O2-  O19  1  0.79441351  0.66666667  0.04166666  1.0
  O2-  O19  1  0.79441351  0.66666667  0.54166667  1.0
  O2-  O19  1  0.79441351  0.86666667  0.04166666  1.0
  O2-  O19  1  0.79441351  0.86666667  0.54166667  1.0
  O2-  O19  1  0.99441351  0.06666667  0.04166667  1.0
  O2-  O19  1  0.99441351  0.06666667  0.54166667  1.0
  O2-  O19  1  0.99441351  0.26666667  0.04166667  1.0
  O2-  O19  1  0.99441351  0.26666667  0.54166667  1.0
  O2-  O19  1  0.99441351  0.46666667  0.04166666  1.0
  O2-  O19  1  0.99441351  0.46666667  0.54166667  1.0
  O2-  O19  1  0.99441351  0.66666667  0.04166666  1.0
  O2-  O19  1  0.99441351  0.66666667  0.54166667  1.0
  O2-  O19  1  0.99441351  0.86666667  0.04166666  1.0
  O2-  O19  1  0.99441351  0.86666667  0.54166667  1.0
  O2-  O20  1  0.06666667  0.07225315  0.45833334  1.0
  O2-  O20  1  0.06666667  0.07225315  0.95833334  1.0
  O2-  O20  1  0.06666667  0.27225315  0.45833334  1.0
  O2-  O20  1  0.06666667  0.27225315  0.95833334  1.0
  O2-  O20  1  0.06666667  0.47225315  0.45833334  1.0
  O2-  O20  1  0.06666667  0.47225315  0.95833334  1.0
  O2-  O20  1  0.06666667  0.67225315  0.45833334  1.0
  O2-  O20  1  0.06666667  0.67225315  0.95833334  1.0
  O2-  O20  1  0.06666667  0.87225315  0.45833334  1.0
  O2-  O20  1  0.06666667  0.87225315  0.95833334  1.0
  O2-  O20  1  0.26666667  0.07225315  0.45833334  1.0
  O2-  O20  1  0.26666667  0.07225315  0.95833334  1.0
  O2-  O20  1  0.26666667  0.27225315  0.45833334  1.0
  O2-  O20  1  0.26666667  0.27225315  0.95833334  1.0
  O2-  O20  1  0.26666667  0.47225315  0.45833334  1.0
  O2-  O20  1  0.26666667  0.47225315  0.95833334  1.0
  O2-  O20  1  0.26666667  0.67225315  0.45833334  1.0
  O2-  O20  1  0.26666667  0.67225315  0.95833334  1.0
  O2-  O20  1  0.26666667  0.87225315  0.45833334  1.0
  O2-  O20  1  0.26666667  0.87225315  0.95833334  1.0
  O2-  O20  1  0.46666667  0.07225315  0.45833334  1.0
  O2-  O20  1  0.46666667  0.07225315  0.95833334  1.0
  O2-  O20  1  0.46666667  0.27225315  0.45833334  1.0
  O2-  O20  1  0.46666667  0.27225315  0.95833334  1.0
  O2-  O20  1  0.46666667  0.47225315  0.45833334  1.0
  O2-  O20  1  0.46666667  0.47225315  0.95833334  1.0
  O2-  O20  1  0.46666667  0.67225315  0.45833334  1.0
  O2-  O20  1  0.46666667  0.67225315  0.95833334  1.0
  O2-  O20  1  0.46666667  0.87225315  0.45833334  1.0
  O2-  O20  1  0.46666667  0.87225315  0.95833334  1.0
  O2-  O20  1  0.66666667  0.07225315  0.45833334  1.0
  O2-  O20  1  0.66666667  0.07225315  0.95833334  1.0
  O2-  O20  1  0.66666667  0.27225315  0.45833334  1.0
  O2-  O20  1  0.66666667  0.27225315  0.95833334  1.0
  O2-  O20  1  0.66666667  0.47225315  0.45833334  1.0
  O2-  O20  1  0.66666667  0.47225315  0.95833334  1.0
  O2-  O20  1  0.66666667  0.67225315  0.45833334  1.0
  O2-  O20  1  0.66666667  0.67225315  0.95833334  1.0
  O2-  O20  1  0.66666667  0.87225315  0.45833334  1.0
  O2-  O20  1  0.66666667  0.87225315  0.95833334  1.0
  O2-  O20  1  0.86666667  0.07225315  0.45833334  1.0
  O2-  O20  1  0.86666667  0.07225315  0.95833334  1.0
  O2-  O20  1  0.86666667  0.27225315  0.45833334  1.0
  O2-  O20  1  0.86666667  0.27225315  0.95833334  1.0
  O2-  O20  1  0.86666667  0.47225315  0.45833334  1.0
  O2-  O20  1  0.86666667  0.47225315  0.95833334  1.0
  O2-  O20  1  0.86666667  0.67225315  0.45833334  1.0
  O2-  O20  1  0.86666667  0.67225315  0.95833334  1.0
  O2-  O20  1  0.86666667  0.87225315  0.45833334  1.0
  O2-  O20  1  0.86666667  0.87225315  0.95833334  1.0
  O2-  O21  1  0.00558649  0.13333333  0.45833334  1.0
  O2-  O21  1  0.00558649  0.13333333  0.95833334  1.0
  O2-  O21  1  0.00558649  0.33333333  0.45833334  1.0
  O2-  O21  1  0.00558649  0.33333333  0.95833334  1.0
  O2-  O21  1  0.00558649  0.53333333  0.45833334  1.0
  O2-  O21  1  0.00558649  0.53333333  0.95833334  1.0
  O2-  O21  1  0.00558649  0.73333333  0.45833334  1.0
  O2-  O21  1  0.00558649  0.73333333  0.95833334  1.0
  O2-  O21  1  0.00558649  0.93333333  0.45833334  1.0
  O2-  O21  1  0.00558649  0.93333333  0.95833334  1.0
  O2-  O21  1  0.20558649  0.13333333  0.45833334  1.0
  O2-  O21  1  0.20558649  0.13333333  0.95833334  1.0
  O2-  O21  1  0.20558649  0.33333333  0.45833334  1.0
  O2-  O21  1  0.20558649  0.33333333  0.95833334  1.0
  O2-  O21  1  0.20558649  0.53333333  0.45833334  1.0
  O2-  O21  1  0.20558649  0.53333333  0.95833334  1.0
  O2-  O21  1  0.20558649  0.73333333  0.45833334  1.0
  O2-  O21  1  0.20558649  0.73333333  0.95833334  1.0
  O2-  O21  1  0.20558649  0.93333333  0.45833334  1.0
  O2-  O21  1  0.20558649  0.93333333  0.95833334  1.0
  O2-  O21  1  0.40558649  0.13333333  0.45833334  1.0
  O2-  O21  1  0.40558649  0.13333333  0.95833334  1.0
  O2-  O21  1  0.40558649  0.33333333  0.45833334  1.0
  O2-  O21  1  0.40558649  0.33333333  0.95833334  1.0
  O2-  O21  1  0.40558649  0.53333333  0.45833334  1.0
  O2-  O21  1  0.40558649  0.53333333  0.95833334  1.0
  O2-  O21  1  0.40558649  0.73333333  0.45833334  1.0
  O2-  O21  1  0.40558649  0.73333333  0.95833334  1.0
  O2-  O21  1  0.40558649  0.93333333  0.45833334  1.0
  O2-  O21  1  0.40558649  0.93333333  0.95833334  1.0
  O2-  O21  1  0.60558649  0.13333333  0.45833334  1.0
  O2-  O21  1  0.60558649  0.13333333  0.95833334  1.0
  O2-  O21  1  0.60558649  0.33333333  0.45833334  1.0
  O2-  O21  1  0.60558649  0.33333333  0.95833334  1.0
  O2-  O21  1  0.60558649  0.53333333  0.45833334  1.0
  O2-  O21  1  0.60558649  0.53333333  0.95833334  1.0
  O2-  O21  1  0.60558649  0.73333333  0.45833334  1.0
  O2-  O21  1  0.60558649  0.73333333  0.95833334  1.0
  O2-  O21  1  0.60558649  0.93333333  0.45833334  1.0
  O2-  O21  1  0.60558649  0.93333333  0.95833334  1.0
  O2-  O21  1  0.80558649  0.13333333  0.45833334  1.0
  O2-  O21  1  0.80558649  0.13333333  0.95833334  1.0
  O2-  O21  1  0.80558649  0.33333333  0.45833334  1.0
  O2-  O21  1  0.80558649  0.33333333  0.95833334  1.0
  O2-  O21  1  0.80558649  0.53333333  0.45833334  1.0
  O2-  O21  1  0.80558649  0.53333333  0.95833334  1.0
  O2-  O21  1  0.80558649  0.73333333  0.45833334  1.0
  O2-  O21  1  0.80558649  0.73333333  0.95833334  1.0
  O2-  O21  1  0.80558649  0.93333333  0.45833334  1.0
  O2-  O21  1  0.80558649  0.93333333  0.95833334  1.0
  O2-  O22  1  0.12774685  0.19441351  0.45833334  1.0
  O2-  O22  1  0.12774685  0.19441351  0.95833334  1.0
  O2-  O22  1  0.12774685  0.39441351  0.45833334  1.0
  O2-  O22  1  0.12774685  0.39441351  0.95833334  1.0
  O2-  O22  1  0.12774685  0.59441351  0.45833334  1.0
  O2-  O22  1  0.12774685  0.59441351  0.95833334  1.0
  O2-  O22  1  0.12774685  0.79441351  0.45833334  1.0
  O2-  O22  1  0.12774685  0.79441351  0.95833334  1.0
  O2-  O22  1  0.12774685  0.99441351  0.45833334  1.0
  O2-  O22  1  0.12774685  0.99441351  0.95833334  1.0
  O2-  O22  1  0.32774685  0.19441351  0.45833334  1.0
  O2-  O22  1  0.32774685  0.19441351  0.95833334  1.0
  O2-  O22  1  0.32774685  0.39441351  0.45833334  1.0
  O2-  O22  1  0.32774685  0.39441351  0.95833334  1.0
  O2-  O22  1  0.32774685  0.59441351  0.45833334  1.0
  O2-  O22  1  0.32774685  0.59441351  0.95833334  1.0
  O2-  O22  1  0.32774685  0.79441351  0.45833334  1.0
  O2-  O22  1  0.32774685  0.79441351  0.95833334  1.0
  O2-  O22  1  0.32774685  0.99441351  0.45833334  1.0
  O2-  O22  1  0.32774685  0.99441351  0.95833334  1.0
  O2-  O22  1  0.52774685  0.19441351  0.45833334  1.0
  O2-  O22  1  0.52774685  0.19441351  0.95833334  1.0
  O2-  O22  1  0.52774685  0.39441351  0.45833334  1.0
  O2-  O22  1  0.52774685  0.39441351  0.95833334  1.0
  O2-  O22  1  0.52774685  0.59441351  0.45833334  1.0
  O2-  O22  1  0.52774685  0.59441351  0.95833334  1.0
  O2-  O22  1  0.52774685  0.79441351  0.45833334  1.0
  O2-  O22  1  0.52774685  0.79441351  0.95833334  1.0
  O2-  O22  1  0.52774685  0.99441351  0.45833334  1.0
  O2-  O22  1  0.52774685  0.99441351  0.95833334  1.0
  O2-  O22  1  0.72774685  0.19441351  0.45833334  1.0
  O2-  O22  1  0.72774685  0.19441351  0.95833334  1.0
  O2-  O22  1  0.72774685  0.39441351  0.45833334  1.0
  O2-  O22  1  0.72774685  0.39441351  0.95833334  1.0
  O2-  O22  1  0.72774685  0.59441351  0.45833334  1.0
  O2-  O22  1  0.72774685  0.59441351  0.95833334  1.0
  O2-  O22  1  0.72774685  0.79441351  0.45833334  1.0
  O2-  O22  1  0.72774685  0.79441351  0.95833334  1.0
  O2-  O22  1  0.72774685  0.99441351  0.45833334  1.0
  O2-  O22  1  0.72774685  0.99441351  0.95833334  1.0
  O2-  O22  1  0.92774685  0.19441351  0.45833334  1.0
  O2-  O22  1  0.92774685  0.19441351  0.95833334  1.0
  O2-  O22  1  0.92774685  0.39441351  0.45833334  1.0
  O2-  O22  1  0.92774685  0.39441351  0.95833334  1.0
  O2-  O22  1  0.92774685  0.59441351  0.45833334  1.0
  O2-  O22  1  0.92774685  0.59441351  0.95833334  1.0
  O2-  O22  1  0.92774685  0.79441351  0.45833334  1.0
  O2-  O22  1  0.92774685  0.79441351  0.95833334  1.0
  O2-  O22  1  0.92774685  0.99441351  0.45833334  1.0
  O2-  O22  1  0.92774685  0.99441351  0.95833334  1.0
  O2-  O23  1  0.13333333  0.12774685  0.04166667  1.0
  O2-  O23  1  0.13333333  0.12774685  0.54166667  1.0
  O2-  O23  1  0.13333333  0.32774685  0.04166666  1.0
  O2-  O23  1  0.13333333  0.32774685  0.54166667  1.0
  O2-  O23  1  0.13333333  0.52774685  0.04166667  1.0
  O2-  O23  1  0.13333333  0.52774685  0.54166667  1.0
  O2-  O23  1  0.13333333  0.72774685  0.04166666  1.0
  O2-  O23  1  0.13333333  0.72774685  0.54166667  1.0
  O2-  O23  1  0.13333333  0.92774685  0.04166667  1.0
  O2-  O23  1  0.13333333  0.92774685  0.54166667  1.0
  O2-  O23  1  0.33333333  0.12774685  0.04166666  1.0
  O2-  O23  1  0.33333333  0.12774685  0.54166667  1.0
  O2-  O23  1  0.33333333  0.32774685  0.04166667  1.0
  O2-  O23  1  0.33333333  0.32774685  0.54166667  1.0
  O2-  O23  1  0.33333333  0.52774685  0.04166666  1.0
  O2-  O23  1  0.33333333  0.52774685  0.54166667  1.0
  O2-  O23  1  0.33333333  0.72774685  0.04166667  1.0
  O2-  O23  1  0.33333333  0.72774685  0.54166667  1.0
  O2-  O23  1  0.33333333  0.92774685  0.04166667  1.0
  O2-  O23  1  0.33333333  0.92774685  0.54166667  1.0
  O2-  O23  1  0.53333333  0.12774685  0.04166667  1.0
  O2-  O23  1  0.53333333  0.12774685  0.54166667  1.0
  O2-  O23  1  0.53333333  0.32774685  0.04166666  1.0
  O2-  O23  1  0.53333333  0.32774685  0.54166667  1.0
  O2-  O23  1  0.53333333  0.52774685  0.04166667  1.0
  O2-  O23  1  0.53333333  0.52774685  0.54166667  1.0
  O2-  O23  1  0.53333333  0.72774685  0.04166667  1.0
  O2-  O23  1  0.53333333  0.72774685  0.54166667  1.0
  O2-  O23  1  0.53333333  0.92774685  0.04166666  1.0
  O2-  O23  1  0.53333333  0.92774685  0.54166667  1.0
  O2-  O23  1  0.73333333  0.12774685  0.04166666  1.0
  O2-  O23  1  0.73333333  0.12774685  0.54166667  1.0
  O2-  O23  1  0.73333333  0.32774685  0.04166667  1.0
  O2-  O23  1  0.73333333  0.32774685  0.54166667  1.0
  O2-  O23  1  0.73333333  0.52774685  0.04166667  1.0
  O2-  O23  1  0.73333333  0.52774685  0.54166667  1.0
  O2-  O23  1  0.73333333  0.72774685  0.04166666  1.0
  O2-  O23  1  0.73333333  0.72774685  0.54166667  1.0
  O2-  O23  1  0.73333333  0.92774685  0.04166666  1.0
  O2-  O23  1  0.73333333  0.92774685  0.54166667  1.0
  O2-  O23  1  0.93333333  0.12774685  0.04166667  1.0
  O2-  O23  1  0.93333333  0.12774685  0.54166667  1.0
  O2-  O23  1  0.93333333  0.32774685  0.04166667  1.0
  O2-  O23  1  0.93333333  0.32774685  0.54166667  1.0
  O2-  O23  1  0.93333333  0.52774685  0.04166666  1.0
  O2-  O23  1  0.93333333  0.52774685  0.54166667  1.0
  O2-  O23  1  0.93333333  0.72774685  0.04166666  1.0
  O2-  O23  1  0.93333333  0.72774685  0.54166667  1.0
  O2-  O23  1  0.93333333  0.92774685  0.04166666  1.0
  O2-  O23  1  0.93333333  0.92774685  0.54166667  1.0
  O2-  O24  1  0.00558649  0.07225315  0.20833334  1.0
  O2-  O24  1  0.00558649  0.07225315  0.70833333  1.0
  O2-  O24  1  0.00558649  0.27225315  0.20833333  1.0
  O2-  O24  1  0.00558649  0.27225315  0.70833333  1.0
  O2-  O24  1  0.00558649  0.47225315  0.20833334  1.0
  O2-  O24  1  0.00558649  0.47225315  0.70833333  1.0
  O2-  O24  1  0.00558649  0.67225315  0.20833334  1.0
  O2-  O24  1  0.00558649  0.67225315  0.70833334  1.0
  O2-  O24  1  0.00558649  0.87225315  0.20833333  1.0
  O2-  O24  1  0.00558649  0.87225315  0.70833334  1.0
  O2-  O24  1  0.20558649  0.07225315  0.20833333  1.0
  O2-  O24  1  0.20558649  0.07225315  0.70833333  1.0
  O2-  O24  1  0.20558649  0.27225315  0.20833334  1.0
  O2-  O24  1  0.20558649  0.27225315  0.70833333  1.0
  O2-  O24  1  0.20558649  0.47225315  0.20833334  1.0
  O2-  O24  1  0.20558649  0.47225315  0.70833334  1.0
  O2-  O24  1  0.20558649  0.67225315  0.20833333  1.0
  O2-  O24  1  0.20558649  0.67225315  0.70833334  1.0
  O2-  O24  1  0.20558649  0.87225315  0.20833334  1.0
  O2-  O24  1  0.20558649  0.87225315  0.70833333  1.0
  O2-  O24  1  0.40558649  0.07225315  0.20833334  1.0
  O2-  O24  1  0.40558649  0.07225315  0.70833333  1.0
  O2-  O24  1  0.40558649  0.27225315  0.20833334  1.0
  O2-  O24  1  0.40558649  0.27225315  0.70833334  1.0
  O2-  O24  1  0.40558649  0.47225315  0.20833333  1.0
  O2-  O24  1  0.40558649  0.47225315  0.70833334  1.0
  O2-  O24  1  0.40558649  0.67225315  0.20833334  1.0
  O2-  O24  1  0.40558649  0.67225315  0.70833333  1.0
  O2-  O24  1  0.40558649  0.87225315  0.20833333  1.0
  O2-  O24  1  0.40558649  0.87225315  0.70833333  1.0
  O2-  O24  1  0.60558649  0.07225315  0.20833334  1.0
  O2-  O24  1  0.60558649  0.07225315  0.70833334  1.0
  O2-  O24  1  0.60558649  0.27225315  0.20833333  1.0
  O2-  O24  1  0.60558649  0.27225315  0.70833334  1.0
  O2-  O24  1  0.60558649  0.47225315  0.20833334  1.0
  O2-  O24  1  0.60558649  0.47225315  0.70833333  1.0
  O2-  O24  1  0.60558649  0.67225315  0.20833333  1.0
  O2-  O24  1  0.60558649  0.67225315  0.70833333  1.0
  O2-  O24  1  0.60558649  0.87225315  0.20833333  1.0
  O2-  O24  1  0.60558649  0.87225315  0.70833333  1.0
  O2-  O24  1  0.80558649  0.07225315  0.20833333  1.0
  O2-  O24  1  0.80558649  0.07225315  0.70833334  1.0
  O2-  O24  1  0.80558649  0.27225315  0.20833334  1.0
  O2-  O24  1  0.80558649  0.27225315  0.70833333  1.0
  O2-  O24  1  0.80558649  0.47225315  0.20833333  1.0
  O2-  O24  1  0.80558649  0.47225315  0.70833333  1.0
  O2-  O24  1  0.80558649  0.67225315  0.20833333  1.0
  O2-  O24  1  0.80558649  0.67225315  0.70833333  1.0
  O2-  O24  1  0.80558649  0.87225315  0.20833334  1.0
  O2-  O24  1  0.80558649  0.87225315  0.70833333  1.0
  O2-  O25  1  0.12774685  0.13333333  0.20833333  1.0
  O2-  O25  1  0.12774685  0.13333333  0.70833333  1.0
  O2-  O25  1  0.12774685  0.33333333  0.20833333  1.0
  O2-  O25  1  0.12774685  0.33333333  0.70833333  1.0
  O2-  O25  1  0.12774685  0.53333333  0.20833334  1.0
  O2-  O25  1  0.12774685  0.53333333  0.70833333  1.0
  O2-  O25  1  0.12774685  0.73333333  0.20833333  1.0
  O2-  O25  1  0.12774685  0.73333333  0.70833334  1.0
  O2-  O25  1  0.12774685  0.93333333  0.20833333  1.0
  O2-  O25  1  0.12774685  0.93333333  0.70833333  1.0
  O2-  O25  1  0.32774685  0.13333333  0.20833333  1.0
  O2-  O25  1  0.32774685  0.13333333  0.70833333  1.0
  O2-  O25  1  0.32774685  0.33333333  0.20833334  1.0
  O2-  O25  1  0.32774685  0.33333333  0.70833333  1.0
  O2-  O25  1  0.32774685  0.53333333  0.20833333  1.0
  O2-  O25  1  0.32774685  0.53333333  0.70833334  1.0
  O2-  O25  1  0.32774685  0.73333333  0.20833333  1.0
  O2-  O25  1  0.32774685  0.73333333  0.70833333  1.0
  O2-  O25  1  0.32774685  0.93333333  0.20833333  1.0
  O2-  O25  1  0.32774685  0.93333333  0.70833333  1.0
  O2-  O25  1  0.52774685  0.13333333  0.20833334  1.0
  O2-  O25  1  0.52774685  0.13333333  0.70833333  1.0
  O2-  O25  1  0.52774685  0.33333333  0.20833333  1.0
  O2-  O25  1  0.52774685  0.33333333  0.70833334  1.0
  O2-  O25  1  0.52774685  0.53333333  0.20833333  1.0
  O2-  O25  1  0.52774685  0.53333333  0.70833333  1.0
  O2-  O25  1  0.52774685  0.73333333  0.20833333  1.0
  O2-  O25  1  0.52774685  0.73333333  0.70833333  1.0
  O2-  O25  1  0.52774685  0.93333333  0.20833333  1.0
  O2-  O25  1  0.52774685  0.93333333  0.70833333  1.0
  O2-  O25  1  0.72774685  0.13333333  0.20833333  1.0
  O2-  O25  1  0.72774685  0.13333333  0.70833334  1.0
  O2-  O25  1  0.72774685  0.33333333  0.20833333  1.0
  O2-  O25  1  0.72774685  0.33333333  0.70833333  1.0
  O2-  O25  1  0.72774685  0.53333333  0.20833333  1.0
  O2-  O25  1  0.72774685  0.53333333  0.70833333  1.0
  O2-  O25  1  0.72774685  0.73333333  0.20833333  1.0
  O2-  O25  1  0.72774685  0.73333333  0.70833333  1.0
  O2-  O25  1  0.72774685  0.93333333  0.20833333  1.0
  O2-  O25  1  0.72774685  0.93333333  0.70833333  1.0
  O2-  O25  1  0.92774685  0.13333333  0.20833333  1.0
  O2-  O25  1  0.92774685  0.13333333  0.70833333  1.0
  O2-  O25  1  0.92774685  0.33333333  0.20833333  1.0
  O2-  O25  1  0.92774685  0.33333333  0.70833333  1.0
  O2-  O25  1  0.92774685  0.53333333  0.20833333  1.0
  O2-  O25  1  0.92774685  0.53333333  0.70833333  1.0
  O2-  O25  1  0.92774685  0.73333333  0.20833333  1.0
  O2-  O25  1  0.92774685  0.73333333  0.70833333  1.0
  O2-  O25  1  0.92774685  0.93333333  0.20833333  1.0
  O2-  O25  1  0.92774685  0.93333333  0.70833333  1.0
  O2-  O26  1  0.00000000  0.13891982  0.12500000  1.0
  O2-  O26  1  0.00000000  0.13891982  0.62500000  1.0
  O2-  O26  1  0.00000000  0.33891982  0.12500000  1.0
  O2-  O26  1  0.00000000  0.33891982  0.62500000  1.0
  O2-  O26  1  0.00000000  0.53891982  0.12500000  1.0
  O2-  O26  1  0.00000000  0.53891982  0.62500000  1.0
  O2-  O26  1  0.00000000  0.73891982  0.12500000  1.0
  O2-  O26  1  0.00000000  0.73891982  0.62500000  1.0
  O2-  O26  1  0.00000000  0.93891982  0.12500000  1.0
  O2-  O26  1  0.00000000  0.93891982  0.62500000  1.0
  O2-  O26  1  0.20000000  0.13891982  0.12500000  1.0
  O2-  O26  1  0.20000000  0.13891982  0.62500000  1.0
  O2-  O26  1  0.20000000  0.33891982  0.12500000  1.0
  O2-  O26  1  0.20000000  0.33891982  0.62500000  1.0
  O2-  O26  1  0.20000000  0.53891982  0.12500000  1.0
  O2-  O26  1  0.20000000  0.53891982  0.62500000  1.0
  O2-  O26  1  0.20000000  0.73891982  0.12500000  1.0
  O2-  O26  1  0.20000000  0.73891982  0.62500000  1.0
  O2-  O26  1  0.20000000  0.93891982  0.12500000  1.0
  O2-  O26  1  0.20000000  0.93891982  0.62500000  1.0
  O2-  O26  1  0.40000000  0.13891982  0.12500000  1.0
  O2-  O26  1  0.40000000  0.13891982  0.62500000  1.0
  O2-  O26  1  0.40000000  0.33891982  0.12500000  1.0
  O2-  O26  1  0.40000000  0.33891982  0.62500000  1.0
  O2-  O26  1  0.40000000  0.53891982  0.12500000  1.0
  O2-  O26  1  0.40000000  0.53891982  0.62500000  1.0
  O2-  O26  1  0.40000000  0.73891982  0.12500000  1.0
  O2-  O26  1  0.40000000  0.73891982  0.62500000  1.0
  O2-  O26  1  0.40000000  0.93891982  0.12500000  1.0
  O2-  O26  1  0.40000000  0.93891982  0.62500000  1.0
  O2-  O26  1  0.60000000  0.13891982  0.12500000  1.0
  O2-  O26  1  0.60000000  0.13891982  0.62500000  1.0
  O2-  O26  1  0.60000000  0.33891982  0.12500000  1.0
  O2-  O26  1  0.60000000  0.33891982  0.62500000  1.0
  O2-  O26  1  0.60000000  0.53891982  0.12500000  1.0
  O2-  O26  1  0.60000000  0.53891982  0.62500000  1.0
  O2-  O26  1  0.60000000  0.73891982  0.12500000  1.0
  O2-  O26  1  0.60000000  0.73891982  0.62500000  1.0
  O2-  O26  1  0.60000000  0.93891982  0.12500000  1.0
  O2-  O26  1  0.60000000  0.93891982  0.62500000  1.0
  O2-  O26  1  0.80000000  0.13891982  0.12500000  1.0
  O2-  O26  1  0.80000000  0.13891982  0.62500000  1.0
  O2-  O26  1  0.80000000  0.33891982  0.12500000  1.0
  O2-  O26  1  0.80000000  0.33891982  0.62500000  1.0
  O2-  O26  1  0.80000000  0.53891982  0.12500000  1.0
  O2-  O26  1  0.80000000  0.53891982  0.62500000  1.0
  O2-  O26  1  0.80000000  0.73891982  0.12500000  1.0
  O2-  O26  1  0.80000000  0.73891982  0.62500000  1.0
  O2-  O26  1  0.80000000  0.93891982  0.12500000  1.0
  O2-  O26  1  0.80000000  0.93891982  0.62500000  1.0
  O2-  O27  1  0.13891982  0.00000000  0.12500000  1.0
  O2-  O27  1  0.13891982  0.00000000  0.62500000  1.0
  O2-  O27  1  0.13891982  0.20000000  0.12500000  1.0
  O2-  O27  1  0.13891982  0.20000000  0.62500000  1.0
  O2-  O27  1  0.13891982  0.40000000  0.12500000  1.0
  O2-  O27  1  0.13891982  0.40000000  0.62500000  1.0
  O2-  O27  1  0.13891982  0.60000000  0.12500000  1.0
  O2-  O27  1  0.13891982  0.60000000  0.62500000  1.0
  O2-  O27  1  0.13891982  0.80000000  0.12500000  1.0
  O2-  O27  1  0.13891982  0.80000000  0.62500000  1.0
  O2-  O27  1  0.33891982  0.00000000  0.12500000  1.0
  O2-  O27  1  0.33891982  0.00000000  0.62500000  1.0
  O2-  O27  1  0.33891982  0.20000000  0.12500000  1.0
  O2-  O27  1  0.33891982  0.20000000  0.62500000  1.0
  O2-  O27  1  0.33891982  0.40000000  0.12500000  1.0
  O2-  O27  1  0.33891982  0.40000000  0.62500000  1.0
  O2-  O27  1  0.33891982  0.60000000  0.12500000  1.0
  O2-  O27  1  0.33891982  0.60000000  0.62500000  1.0
  O2-  O27  1  0.33891982  0.80000000  0.12500000  1.0
  O2-  O27  1  0.33891982  0.80000000  0.62500000  1.0
  O2-  O27  1  0.53891982  0.00000000  0.12500000  1.0
  O2-  O27  1  0.53891982  0.00000000  0.62500000  1.0
  O2-  O27  1  0.53891982  0.20000000  0.12500000  1.0
  O2-  O27  1  0.53891982  0.20000000  0.62500000  1.0
  O2-  O27  1  0.53891982  0.40000000  0.12500000  1.0
  O2-  O27  1  0.53891982  0.40000000  0.62500000  1.0
  O2-  O27  1  0.53891982  0.60000000  0.12500000  1.0
  O2-  O27  1  0.53891982  0.60000000  0.62500000  1.0
  O2-  O27  1  0.53891982  0.80000000  0.12500000  1.0
  O2-  O27  1  0.53891982  0.80000000  0.62500000  1.0
  O2-  O27  1  0.73891982  0.00000000  0.12500000  1.0
  O2-  O27  1  0.73891982  0.00000000  0.62500000  1.0
  O2-  O27  1  0.73891982  0.20000000  0.12500000  1.0
  O2-  O27  1  0.73891982  0.20000000  0.62500000  1.0
  O2-  O27  1  0.73891982  0.40000000  0.12500000  1.0
  O2-  O27  1  0.73891982  0.40000000  0.62500000  1.0
  O2-  O27  1  0.73891982  0.60000000  0.12500000  1.0
  O2-  O27  1  0.73891982  0.60000000  0.62500000  1.0
  O2-  O27  1  0.73891982  0.80000000  0.12500000  1.0
  O2-  O27  1  0.73891982  0.80000000  0.62500000  1.0
  O2-  O27  1  0.93891982  0.00000000  0.12500000  1.0
  O2-  O27  1  0.93891982  0.00000000  0.62500000  1.0
  O2-  O27  1  0.93891982  0.20000000  0.12500000  1.0
  O2-  O27  1  0.93891982  0.20000000  0.62500000  1.0
  O2-  O27  1  0.93891982  0.40000000  0.12500000  1.0
  O2-  O27  1  0.93891982  0.40000000  0.62500000  1.0
  O2-  O27  1  0.93891982  0.60000000  0.12500000  1.0
  O2-  O27  1  0.93891982  0.60000000  0.62500000  1.0
  O2-  O27  1  0.93891982  0.80000000  0.12500000  1.0
  O2-  O27  1  0.93891982  0.80000000  0.62500000  1.0
  O2-  O28  1  0.06108018  0.06108018  0.12500000  1.0
  O2-  O28  1  0.06108018  0.06108018  0.62500000  1.0
  O2-  O28  1  0.06108018  0.26108018  0.12500000  1.0
  O2-  O28  1  0.06108018  0.26108018  0.62500000  1.0
  O2-  O28  1  0.06108018  0.46108018  0.12500000  1.0
  O2-  O28  1  0.06108018  0.46108018  0.62500000  1.0
  O2-  O28  1  0.06108018  0.66108018  0.12500000  1.0
  O2-  O28  1  0.06108018  0.66108018  0.62500000  1.0
  O2-  O28  1  0.06108018  0.86108018  0.12500000  1.0
  O2-  O28  1  0.06108018  0.86108018  0.62500000  1.0
  O2-  O28  1  0.26108018  0.06108018  0.12500000  1.0
  O2-  O28  1  0.26108018  0.06108018  0.62500000  1.0
  O2-  O28  1  0.26108018  0.26108018  0.12500000  1.0
  O2-  O28  1  0.26108018  0.26108018  0.62500000  1.0
  O2-  O28  1  0.26108018  0.46108018  0.12500000  1.0
  O2-  O28  1  0.26108018  0.46108018  0.62500000  1.0
  O2-  O28  1  0.26108018  0.66108018  0.12500000  1.0
  O2-  O28  1  0.26108018  0.66108018  0.62500000  1.0
  O2-  O28  1  0.26108018  0.86108018  0.12500000  1.0
  O2-  O28  1  0.26108018  0.86108018  0.62500000  1.0
  O2-  O28  1  0.46108018  0.06108018  0.12500000  1.0
  O2-  O28  1  0.46108018  0.06108018  0.62500000  1.0
  O2-  O28  1  0.46108018  0.26108018  0.12500000  1.0
  O2-  O28  1  0.46108018  0.26108018  0.62500000  1.0
  O2-  O28  1  0.46108018  0.46108018  0.12500000  1.0
  O2-  O28  1  0.46108018  0.46108018  0.62500000  1.0
  O2-  O28  1  0.46108018  0.66108018  0.12500000  1.0
  O2-  O28  1  0.46108018  0.66108018  0.62500000  1.0
  O2-  O28  1  0.46108018  0.86108018  0.12500000  1.0
  O2-  O28  1  0.46108018  0.86108018  0.62500000  1.0
  O2-  O28  1  0.66108018  0.06108018  0.12500000  1.0
  O2-  O28  1  0.66108018  0.06108018  0.62500000  1.0
  O2-  O28  1  0.66108018  0.26108018  0.12500000  1.0
  O2-  O28  1  0.66108018  0.26108018  0.62500000  1.0
  O2-  O28  1  0.66108018  0.46108018  0.12500000  1.0
  O2-  O28  1  0.66108018  0.46108018  0.62500000  1.0
  O2-  O28  1  0.66108018  0.66108018  0.12500000  1.0
  O2-  O28  1  0.66108018  0.66108018  0.62500000  1.0
  O2-  O28  1  0.66108018  0.86108018  0.12500000  1.0
  O2-  O28  1  0.66108018  0.86108018  0.62500000  1.0
  O2-  O28  1  0.86108018  0.06108018  0.12500000  1.0
  O2-  O28  1  0.86108018  0.06108018  0.62500000  1.0
  O2-  O28  1  0.86108018  0.26108018  0.12500000  1.0
  O2-  O28  1  0.86108018  0.26108018  0.62500000  1.0
  O2-  O28  1  0.86108018  0.46108018  0.12500000  1.0
  O2-  O28  1  0.86108018  0.46108018  0.62500000  1.0
  O2-  O28  1  0.86108018  0.66108018  0.12500000  1.0
  O2-  O28  1  0.86108018  0.66108018  0.62500000  1.0
  O2-  O28  1  0.86108018  0.86108018  0.12500000  1.0
  O2-  O28  1  0.86108018  0.86108018  0.62500000  1.0
  O2-  O29  1  0.06666667  0.19441351  0.20833333  1.0
  O2-  O29  1  0.06666667  0.19441351  0.70833333  1.0
  O2-  O29  1  0.06666667  0.39441351  0.20833333  1.0
  O2-  O29  1  0.06666667  0.39441351  0.70833333  1.0
  O2-  O29  1  0.06666667  0.59441351  0.20833334  1.0
  O2-  O29  1  0.06666667  0.59441351  0.70833333  1.0
  O2-  O29  1  0.06666667  0.79441351  0.20833333  1.0
  O2-  O29  1  0.06666667  0.79441351  0.70833334  1.0
  O2-  O29  1  0.06666667  0.99441351  0.20833333  1.0
  O2-  O29  1  0.06666667  0.99441351  0.70833333  1.0
  O2-  O29  1  0.26666667  0.19441351  0.20833333  1.0
  O2-  O29  1  0.26666667  0.19441351  0.70833333  1.0
  O2-  O29  1  0.26666667  0.39441351  0.20833334  1.0
  O2-  O29  1  0.26666667  0.39441351  0.70833333  1.0
  O2-  O29  1  0.26666667  0.59441351  0.20833333  1.0
  O2-  O29  1  0.26666667  0.59441351  0.70833334  1.0
  O2-  O29  1  0.26666667  0.79441351  0.20833333  1.0
  O2-  O29  1  0.26666667  0.79441351  0.70833333  1.0
  O2-  O29  1  0.26666667  0.99441351  0.20833333  1.0
  O2-  O29  1  0.26666667  0.99441351  0.70833333  1.0
  O2-  O29  1  0.46666667  0.19441351  0.20833334  1.0
  O2-  O29  1  0.46666667  0.19441351  0.70833333  1.0
  O2-  O29  1  0.46666667  0.39441351  0.20833333  1.0
  O2-  O29  1  0.46666667  0.39441351  0.70833334  1.0
  O2-  O29  1  0.46666667  0.59441351  0.20833333  1.0
  O2-  O29  1  0.46666667  0.59441351  0.70833333  1.0
  O2-  O29  1  0.46666667  0.79441351  0.20833333  1.0
  O2-  O29  1  0.46666667  0.79441351  0.70833333  1.0
  O2-  O29  1  0.46666667  0.99441351  0.20833333  1.0
  O2-  O29  1  0.46666667  0.99441351  0.70833333  1.0
  O2-  O29  1  0.66666667  0.19441351  0.20833333  1.0
  O2-  O29  1  0.66666667  0.19441351  0.70833334  1.0
  O2-  O29  1  0.66666667  0.39441351  0.20833333  1.0
  O2-  O29  1  0.66666667  0.39441351  0.70833333  1.0
  O2-  O29  1  0.66666667  0.59441351  0.20833333  1.0
  O2-  O29  1  0.66666667  0.59441351  0.70833333  1.0
  O2-  O29  1  0.66666667  0.79441351  0.20833333  1.0
  O2-  O29  1  0.66666667  0.79441351  0.70833333  1.0
  O2-  O29  1  0.66666667  0.99441351  0.20833333  1.0
  O2-  O29  1  0.66666667  0.99441351  0.70833333  1.0
  O2-  O29  1  0.86666667  0.19441351  0.20833333  1.0
  O2-  O29  1  0.86666667  0.19441351  0.70833333  1.0
  O2-  O29  1  0.86666667  0.39441351  0.20833333  1.0
  O2-  O29  1  0.86666667  0.39441351  0.70833333  1.0
  O2-  O29  1  0.86666667  0.59441351  0.20833333  1.0
  O2-  O29  1  0.86666667  0.59441351  0.70833333  1.0
  O2-  O29  1  0.86666667  0.79441351  0.20833333  1.0
  O2-  O29  1  0.86666667  0.79441351  0.70833333  1.0
  O2-  O29  1  0.86666667  0.99441351  0.20833333  1.0
  O2-  O29  1  0.86666667  0.99441351  0.70833333  1.0
