# generated using pymatgen
data_P324S1051
_symmetry_space_group_name_H-M   'P 1'
_cell_length_a   37.13302800
_cell_length_b   37.88362722
_cell_length_c   38.01939855
_cell_angle_alpha   107.48331704
_cell_angle_beta   103.55243778
_cell_angle_gamma   101.86041383
_symmetry_Int_Tables_number   1
_chemical_formula_structural   P324S1051
_chemical_formula_sum   'P324 S1051'
_cell_volume   47345.43229468
_cell_formula_units_Z   1
loop_
 _symmetry_equiv_pos_site_id
 _symmetry_equiv_pos_as_xyz
  1  'x, y, z'
loop_
 _atom_type_symbol
 _atom_type_oxidation_number
  P5+  5.0
  S2-  -2.0
loop_
 _atom_site_type_symbol
 _atom_site_label
 _atom_site_symmetry_multiplicity
 _atom_site_fract_x
 _atom_site_fract_y
 _atom_site_fract_z
 _atom_site_occupancy
  P5+  P14  1  0.09258725  0.13967606  0.10583813  1.0
  P5+  P14  1  0.48457161  0.54178657  0.44070685  1.0
  P5+  P14  1  0.06927196  0.45349794  0.69299518  1.0
  P5+  P14  1  0.41191076  0.43225442  0.23370783  1.0
  P5+  P14  1  0.08739654  0.50322711  0.43559761  1.0
  P5+  P14  1  0.25546933  0.69343025  0.43412403  1.0
  P5+  P14  1  0.31364135  0.63696984  0.19474285  1.0
  P5+  P14  1  0.08476617  0.82905730  0.43568399  1.0
  P5+  P14  1  0.18398557  0.87406256  0.63289485  1.0
  P5+  P14  1  0.23771804  0.17936318  0.14973092  1.0
  P5+  P14  1  0.26586446  0.15222742  0.42902244  1.0
  P5+  P14  1  0.56511663  0.48807193  0.52118873  1.0
  P5+  P14  1  0.28265375  0.62695575  0.22077653  1.0
  P5+  P14  1  0.41635460  0.66967356  0.45093909  1.0
  P5+  P14  1  0.47599425  0.63976832  0.75781808  1.0
  P5+  P14  1  0.39004529  0.73890630  0.22826775  1.0
  P5+  P14  1  0.25522008  0.82939316  0.42180285  1.0
  P5+  P14  1  0.24811449  0.82340317  0.75783509  1.0
  P5+  P14  1  0.41928514  0.16425327  0.08137311  1.0
  P5+  P14  1  0.40688468  0.16019938  0.41893750  1.0
  P5+  P14  1  0.39892429  0.53391572  0.73214458  1.0
  P5+  P14  1  0.55891129  0.36006565  0.16135660  1.0
  P5+  P14  1  0.40266170  0.47968710  0.43055163  1.0
  P5+  P14  1  0.45825272  0.36488648  0.69921572  1.0
  P5+  P14  1  0.60779547  0.47926966  0.35459734  1.0
  P5+  P14  1  0.32531589  0.72012691  0.31501463  1.0
  P5+  P14  1  0.41774731  0.83439004  0.76335931  1.0
  P5+  P14  1  0.49126150  0.12059342  0.27913533  1.0
  P5+  P14  1  0.50042348  0.36895076  0.41858169  1.0
  P5+  P14  1  0.59251025  0.14702945  0.77506899  1.0
  P5+  P14  1  0.50598743  0.56459018  0.16757261  1.0
  P5+  P14  1  0.58208912  0.49396471  0.43143959  1.0
  P5+  P14  1  0.59592571  0.49445632  0.75731603  1.0
  P5+  P14  1  0.58604191  0.82153609  0.09358786  1.0
  P5+  P14  1  0.60079696  0.83175657  0.43302347  1.0
  P5+  P14  1  0.59354377  0.83222754  0.75470196  1.0
  P5+  P14  1  0.50066219  0.29455254  0.30635978  1.0
  P5+  P14  1  0.42603562  0.30955544  0.50741262  1.0
  P5+  P14  1  0.51027637  0.39541423  0.61480504  1.0
  P5+  P14  1  0.75213040  0.48798673  0.09402497  1.0
  P5+  P14  1  0.83147770  0.43373418  0.38638996  1.0
  P5+  P14  1  0.74277463  0.48902443  0.76144114  1.0
  P5+  P14  1  0.76456197  0.82741880  0.08667768  1.0
  P5+  P14  1  0.43410190  0.51514144  0.49216059  1.0
  P5+  P14  1  0.53287601  0.65460665  0.75020043  1.0
  P5+  P14  1  0.91136335  0.14758657  0.09222906  1.0
  P5+  P14  1  0.90351520  0.14721146  0.42574948  1.0
  P5+  P14  1  0.70199254  0.16525921  0.51671958  1.0
  P5+  P14  1  0.91538912  0.50061543  0.09534524  1.0
  P5+  P14  1  0.53158726  0.33976158  0.42639123  1.0
  P5+  P14  1  0.56786645  0.37917114  0.47122174  1.0
  P5+  P14  1  0.90574560  0.82048666  0.07957292  1.0
  P5+  P14  1  0.92050807  0.82536484  0.41784707  1.0
  P5+  P14  1  0.95168450  0.88594594  0.49084780  1.0
  P5+  P15  1  0.48410167  0.38627436  0.44060381  1.0
  P5+  P15  1  0.15749594  0.27231548  0.50220043  1.0
  P5+  P15  1  0.13943825  0.26054894  0.82064244  1.0
  P5+  P15  1  0.17601485  0.49041687  0.35344003  1.0
  P5+  P15  1  0.09118574  0.75870212  0.43239218  1.0
  P5+  P15  1  0.15208481  0.59386967  0.82849770  1.0
  P5+  P15  1  0.13360483  0.93786233  0.15471612  1.0
  P5+  P15  1  0.44175611  0.81133451  0.39547581  1.0
  P5+  P15  1  0.14233239  0.93670354  0.83351505  1.0
  P5+  P15  1  0.32521885  0.27366817  0.15489540  1.0
  P5+  P15  1  0.25430816  0.48520945  0.35276609  1.0
  P5+  P15  1  0.32503333  0.28439202  0.84705480  1.0
  P5+  P15  1  0.31886127  0.60075424  0.16665260  1.0
  P5+  P15  1  0.31850427  0.59488233  0.48329624  1.0
  P5+  P15  1  0.29643072  0.58854185  0.80297765  1.0
  P5+  P15  1  0.55972732  0.68336969  0.34315949  1.0
  P5+  P15  1  0.21701651  0.88628797  0.60793162  1.0
  P5+  P15  1  0.62782519  0.93701505  0.68090708  1.0
  P5+  P15  1  0.47658494  0.27684694  0.15961898  1.0
  P5+  P15  1  0.47693308  0.27554017  0.48292031  1.0
  P5+  P15  1  0.48783147  0.26037672  0.81147890  1.0
  P5+  P15  1  0.47619867  0.59288196  0.16749870  1.0
  P5+  P15  1  0.66033766  0.37120015  0.46311634  1.0
  P5+  P15  1  0.47648713  0.58940276  0.82267565  1.0
  P5+  P15  1  0.28649762  0.73033580  0.36155680  1.0
  P5+  P15  1  0.48538466  0.66985469  0.46232294  1.0
  P5+  P15  1  0.58642998  0.94364288  0.61787332  1.0
  P5+  P15  1  0.62707335  0.26458688  0.15110356  1.0
  P5+  P15  1  0.63840066  0.26833461  0.49530791  1.0
  P5+  P15  1  0.62945020  0.25557725  0.81282200  1.0
  P5+  P15  1  0.62904755  0.58189017  0.13719687  1.0
  P5+  P15  1  0.63130101  0.60667263  0.49976506  1.0
  P5+  P15  1  0.63072281  0.60091226  0.82469781  1.0
  P5+  P15  1  0.70910695  0.93657489  0.24608942  1.0
  P5+  P15  1  0.47288631  0.73424905  0.45489046  1.0
  P5+  P15  1  0.64878914  0.69204737  0.53879621  1.0
  P5+  P15  1  0.79330370  0.24599718  0.13850155  1.0
  P5+  P15  1  0.81129503  0.25910355  0.47864318  1.0
  P5+  P15  1  0.71400012  0.42488005  0.75570530  1.0
  P5+  P15  1  0.63009313  0.35350609  0.43105859  1.0
  P5+  P15  1  0.79906466  0.60434899  0.48079935  1.0
  P5+  P15  1  0.62482434  0.64926729  0.86697677  1.0
  P5+  P15  1  0.52859758  0.53024725  0.34839238  1.0
  P5+  P15  1  0.80506480  0.93912239  0.48678837  1.0
  P5+  P15  1  0.80954628  0.92107122  0.81361609  1.0
  P5+  P15  1  0.90529343  0.46480621  0.38449801  1.0
  P5+  P15  1  0.68050428  0.48173772  0.35416600  1.0
  P5+  P15  1  0.96849981  0.26409400  0.82264307  1.0
  P5+  P15  1  0.53056899  0.35116588  0.16656413  1.0
  P5+  P15  1  0.96182516  0.59919223  0.47766661  1.0
  P5+  P15  1  0.98174629  0.60809547  0.80975713  1.0
  P5+  P15  1  0.95787947  0.87834960  0.42890033  1.0
  P5+  P15  1  0.65548878  0.93113568  0.63878533  1.0
  P5+  P15  1  0.97877441  0.92304914  0.83092694  1.0
  P5+  P16  1  0.15186906  0.05649578  0.31478421  1.0
  P5+  P16  1  0.47611662  0.45655439  0.40005078  1.0
  P5+  P16  1  0.14271324  0.05013430  0.98025415  1.0
  P5+  P16  1  0.13999470  0.39184233  0.31233553  1.0
  P5+  P16  1  0.25283800  0.37502769  0.68814162  1.0
  P5+  P16  1  0.21469274  0.24525623  0.63039483  1.0
  P5+  P16  1  0.15378852  0.72924593  0.30610383  1.0
  P5+  P16  1  0.15279753  0.73426928  0.65027007  1.0
  P5+  P16  1  0.42657299  0.56877841  0.75796897  1.0
  P5+  P16  1  0.31390061  0.05596526  0.31654575  1.0
  P5+  P16  1  0.44302257  0.30297196  0.54297118  1.0
  P5+  P16  1  0.31519407  0.05145737  0.98391934  1.0
  P5+  P16  1  0.48923280  0.48325937  0.34743120  1.0
  P5+  P16  1  0.55652411  0.55010566  0.73706466  1.0
  P5+  P16  1  0.30274905  0.39135985  0.98153266  1.0
  P5+  P16  1  0.50251863  0.78275114  0.58852108  1.0
  P5+  P16  1  0.30383739  0.71663489  0.64310543  1.0
  P5+  P16  1  0.54051299  0.67766002  0.89705054  1.0
  P5+  P16  1  0.31119478  0.04512020  0.45465802  1.0
  P5+  P16  1  0.32167683  0.35022003  0.50555197  1.0
  P5+  P16  1  0.43652870  0.05899923  0.95171602  1.0
  P5+  P16  1  0.46873515  0.39801164  0.32551067  1.0
  P5+  P16  1  0.44835514  0.48575075  0.77954796  1.0
  P5+  P16  1  0.39830605  0.27384121  0.80012023  1.0
  P5+  P16  1  0.50422199  0.67003847  0.23714121  1.0
  P5+  P16  1  0.47476424  0.72642556  0.63428731  1.0
  P5+  P16  1  0.65392233  0.56805709  0.61782047  1.0
  P5+  P16  1  0.59632776  0.20205243  0.39479606  1.0
  P5+  P16  1  0.65225263  0.05138502  0.64770515  1.0
  P5+  P16  1  0.48112831  0.33562612  0.75682676  1.0
  P5+  P16  1  0.40120365  0.57657128  0.21863624  1.0
  P5+  P16  1  0.48205439  0.65061251  0.39827402  1.0
  P5+  P16  1  0.56754293  0.35751108  0.58581116  1.0
  P5+  P16  1  0.73703818  0.39092710  0.55621582  1.0
  P5+  P16  1  0.64447174  0.70834681  0.64735660  1.0
  P5+  P16  1  0.64465298  0.72531018  0.97989295  1.0
  P5+  P16  1  0.86933221  0.05412444  0.60417386  1.0
  P5+  P16  1  0.64234988  0.39575230  0.39297492  1.0
  P5+  P16  1  0.86166548  0.04893851  0.70015082  1.0
  P5+  P16  1  0.81644107  0.50377629  0.25785407  1.0
  P5+  P16  1  0.61661858  0.64962641  0.41248911  1.0
  P5+  P16  1  0.65384183  0.37364990  0.82513001  1.0
  P5+  P16  1  0.50176372  0.82640421  0.40272358  1.0
  P5+  P16  1  0.88384001  0.50943949  0.42340983  1.0
  P5+  P16  1  0.67696611  0.71544042  0.90350219  1.0
  P5+  P16  1  0.98386530  0.04636329  0.32299250  1.0
  P5+  P16  1  0.33623214  0.04351235  0.49250195  1.0
  P5+  P16  1  0.97612900  0.04632517  0.97069443  1.0
  P5+  P16  1  0.87752549  0.42193782  0.35132070  1.0
  P5+  P16  1  0.96610865  0.38302546  0.65138418  1.0
  P5+  P16  1  0.98356517  0.37990772  0.98709358  1.0
  P5+  P16  1  0.32392896  0.43004836  0.48513962  1.0
  P5+  P16  1  0.52940249  0.73264192  0.41834304  1.0
  P5+  P16  1  0.84272814  0.66864112  0.52380255  1.0
  P5+  P17  1  0.19867580  0.53518896  0.42079504  1.0
  P5+  P17  1  0.18186810  0.44228360  0.25271745  1.0
  P5+  P17  1  0.00964557  0.26700136  0.68630566  1.0
  P5+  P17  1  0.02571300  0.61795835  0.02918059  1.0
  P5+  P17  1  0.03912394  0.53238767  0.28026144  1.0
  P5+  P17  1  0.02107681  0.60514400  0.67616618  1.0
  P5+  P17  1  0.13127314  0.64760536  0.28636236  1.0
  P5+  P17  1  0.07965071  0.78484435  0.40688885  1.0
  P5+  P17  1  0.10010456  0.92339894  0.66651056  1.0
  P5+  P17  1  0.19331618  0.27220671  0.02432668  1.0
  P5+  P17  1  0.17388598  0.26811959  0.35291692  1.0
  P5+  P17  1  0.19068895  0.43274450  0.46094243  1.0
  P5+  P17  1  0.32736147  0.46414051  0.01822985  1.0
  P5+  P17  1  0.42319497  0.43044795  0.54959270  1.0
  P5+  P17  1  0.35259125  0.53715342  0.75403261  1.0
  P5+  P17  1  0.43465941  0.70984558  0.31320069  1.0
  P5+  P17  1  0.19175185  0.95828197  0.35433974  1.0
  P5+  P17  1  0.20514811  0.96268263  0.68742784  1.0
  P5+  P17  1  0.53033833  0.36359042  0.47087087  1.0
  P5+  P17  1  0.53141576  0.59628850  0.23729941  1.0
  P5+  P17  1  0.33875239  0.33411428  0.69516126  1.0
  P5+  P17  1  0.23230418  0.49956748  0.18634670  1.0
  P5+  P17  1  0.45206370  0.45989654  0.40974725  1.0
  P5+  P17  1  0.58214909  0.66537224  0.82201599  1.0
  P5+  P17  1  0.34886288  0.94193462  0.00888008  1.0
  P5+  P17  1  0.57959834  0.85077684  0.42182353  1.0
  P5+  P17  1  0.38369726  0.58259123  0.73044073  1.0
  P5+  P17  1  0.38564564  0.43203074  0.01366304  1.0
  P5+  P17  1  0.61779960  0.52547668  0.44383318  1.0
  P5+  P17  1  0.45668208  0.31345508  0.75851111  1.0
  P5+  P17  1  0.29925314  0.67471880  0.41386019  1.0
  P5+  P17  1  0.48498960  0.40064179  0.51036845  1.0
  P5+  P17  1  0.65645914  0.51224849  0.75241240  1.0
  P5+  P17  1  0.52804524  0.95521791  0.02035368  1.0
  P5+  P17  1  0.61156033  0.84953142  0.52311595  1.0
  P5+  P17  1  0.52206491  0.95487300  0.69017470  1.0
  P5+  P17  1  0.68856719  0.27478445  0.02508634  1.0
  P5+  P17  1  0.66520852  0.21183417  0.57197126  1.0
  P5+  P17  1  0.76388102  0.33781325  0.75748582  1.0
  P5+  P17  1  0.81516152  0.65611863  0.46207323  1.0
  P5+  P17  1  0.59423281  0.55358242  0.35917377  1.0
  P5+  P17  1  0.65547900  0.78332729  0.58853239  1.0
  P5+  P17  1  0.57869528  0.70167434  0.19067702  1.0
  P5+  P17  1  0.59132200  0.94016872  0.56796082  1.0
  P5+  P17  1  0.67607673  0.93505174  0.68463373  1.0
  P5+  P17  1  0.63351646  0.24052410  0.44201252  1.0
  P5+  P17  1  0.52423660  0.38545785  0.25792472  1.0
  P5+  P17  1  0.83181905  0.27070895  0.67677062  1.0
  P5+  P17  1  0.73793001  0.67130401  0.21753751  1.0
  P5+  P17  1  0.85472250  0.62093786  0.35491169  1.0
  P5+  P17  1  0.65070190  0.67394497  0.62595432  1.0
  P5+  P17  1  0.84548945  0.93743256  0.01742759  1.0
  P5+  P17  1  0.75932011  0.94271437  0.27101474  1.0
  P5+  P17  1  0.86670374  0.95020471  0.69869968  1.0
  P5+  P18  1  0.07780595  0.18393310  0.25410224  1.0
  P5+  P18  1  0.39273266  0.47252835  0.49666398  1.0
  P5+  P18  1  0.09860871  0.19816176  0.91064382  1.0
  P5+  P18  1  0.07494851  0.51616375  0.23576945  1.0
  P5+  P18  1  0.35188002  0.36582577  0.53786664  1.0
  P5+  P18  1  0.08601052  0.51145706  0.90809062  1.0
  P5+  P18  1  0.06722511  0.84303764  0.25042958  1.0
  P5+  P18  1  0.04158917  0.54308545  0.67463971  1.0
  P5+  P18  1  0.08274433  0.84505985  0.90332284  1.0
  P5+  P18  1  0.25780722  0.17522520  0.24864731  1.0
  P5+  P18  1  0.15415986  0.56485604  0.35197324  1.0
  P5+  P18  1  0.24649191  0.16446676  0.91258393  1.0
  P5+  P18  1  0.24936666  0.48982843  0.23044674  1.0
  P5+  P18  1  0.25195524  0.49226278  0.57770877  1.0
  P5+  P18  1  0.48057035  0.36630845  0.75796151  1.0
  P5+  P18  1  0.24282251  0.84416327  0.24015821  1.0
  P5+  P18  1  0.18132757  0.91009135  0.64183261  1.0
  P5+  P18  1  0.23348236  0.85523925  0.90363787  1.0
  P5+  P18  1  0.64022068  0.16429982  0.47008185  1.0
  P5+  P18  1  0.40574230  0.16614851  0.56998764  1.0
  P5+  P18  1  0.62124123  0.22985889  0.49192066  1.0
  P5+  P18  1  0.40726489  0.50909442  0.23607233  1.0
  P5+  P18  1  0.40823656  0.51414631  0.57348005  1.0
  P5+  P18  1  0.40908867  0.50071022  0.89583244  1.0
  P5+  P18  1  0.43208490  0.84438966  0.23702750  1.0
  P5+  P18  1  0.41983514  0.85071983  0.57938379  1.0
  P5+  P18  1  0.23863302  0.56557582  0.47567168  1.0
  P5+  P18  1  0.58423975  0.17722188  0.21581489  1.0
  P5+  P18  1  0.48880369  0.28947604  0.65052246  1.0
  P5+  P18  1  0.56927146  0.13879860  0.78212301  1.0
  P5+  P18  1  0.56899500  0.49407272  0.24375530  1.0
  P5+  P18  1  0.57851438  0.48647588  0.55923003  1.0
  P5+  P18  1  0.58907000  0.51929430  0.91918900  1.0
  P5+  P18  1  0.57339964  0.82468777  0.24080395  1.0
  P5+  P18  1  0.57906953  0.84208286  0.57237542  1.0
  P5+  P18  1  0.70318671  0.48107531  0.56565185  1.0
  P5+  P18  1  0.59926040  0.31986926  0.16473204  1.0
  P5+  P18  1  0.51561033  0.32854254  0.71350004  1.0
  P5+  P18  1  0.74945108  0.18119748  0.90729691  1.0
  P5+  P18  1  0.74919833  0.51304109  0.23945913  1.0
  P5+  P18  1  0.74250224  0.49791746  0.56967473  1.0
  P5+  P18  1  0.72370803  0.32436327  0.88752600  1.0
  P5+  P18  1  0.75328390  0.83706391  0.22349230  1.0
  P5+  P18  1  0.46971623  0.70230506  0.30059040  1.0
  P5+  P18  1  0.55210139  0.77503356  0.64399474  1.0
  P5+  P18  1  0.90977203  0.16760856  0.23259701  1.0
  P5+  P18  1  0.91273697  0.17471287  0.57402228  1.0
  P5+  P18  1  0.91164029  0.17655872  0.90734154  1.0
  P5+  P18  1  0.90724260  0.50120920  0.24180422  1.0
  P5+  P18  1  0.91919723  0.50864755  0.58259246  1.0
  P5+  P18  1  0.89693031  0.50324241  0.89279474  1.0
  P5+  P18  1  0.62050142  0.52327878  0.49298501  1.0
  P5+  P18  1  0.92410703  0.85119170  0.58790514  1.0
  P5+  P18  1  0.92167154  0.83920082  0.90441118  1.0
  P5+  P19  1  0.46527938  0.32208840  0.16609079  1.0
  P5+  P19  1  0.02355796  0.06641023  0.52433277  1.0
  P5+  P19  1  0.04091344  0.08642136  0.86035999  1.0
  P5+  P19  1  0.02579268  0.48083308  0.23726726  1.0
  P5+  P19  1  0.01908606  0.40824876  0.50703703  1.0
  P5+  P19  1  0.03290161  0.41353733  0.84723989  1.0
  P5+  P19  1  0.48877577  0.72160961  0.40907694  1.0
  P5+  P19  1  0.03487790  0.74755445  0.51100688  1.0
  P5+  P19  1  0.27943989  0.67601717  0.46580836  1.0
  P5+  P19  1  0.22737748  0.19165137  0.52604240  1.0
  P5+  P19  1  0.34040692  0.19702383  0.68861752  1.0
  P5+  P19  1  0.33264419  0.06028143  0.90005269  1.0
  P5+  P19  1  0.35789004  0.25212575  0.19314161  1.0
  P5+  P19  1  0.47002183  0.29152646  0.31915291  1.0
  P5+  P19  1  0.18542250  0.42021458  0.84932325  1.0
  P5+  P19  1  0.23323252  0.50940381  0.30562049  1.0
  P5+  P19  1  0.45361847  0.42998553  0.73167113  1.0
  P5+  P19  1  0.19279493  0.72633833  0.83903435  1.0
  P5+  P19  1  0.35387547  0.07548487  0.17319241  1.0
  P5+  P19  1  0.45505332  0.10819946  0.31138685  1.0
  P5+  P19  1  0.58911033  0.30404023  0.51689068  1.0
  P5+  P19  1  0.35140931  0.39253821  0.17319316  1.0
  P5+  P19  1  0.35256395  0.40417717  0.49855034  1.0
  P5+  P19  1  0.41674310  0.34607158  0.78463671  1.0
  P5+  P19  1  0.63554038  0.50036698  0.31477298  1.0
  P5+  P19  1  0.58255006  0.67866649  0.58580280  1.0
  P5+  P19  1  0.35629975  0.73815225  0.84058863  1.0
  P5+  P19  1  0.37968856  0.22480996  0.17336210  1.0
  P5+  P19  1  0.55598736  0.08568999  0.66763088  1.0
  P5+  P19  1  0.62421093  0.17716559  0.64794959  1.0
  P5+  P19  1  0.53509189  0.41445624  0.17846763  1.0
  P5+  P19  1  0.56902842  0.24680123  0.42097186  1.0
  P5+  P19  1  0.53108480  0.39890136  0.83884847  1.0
  P5+  P19  1  0.51562770  0.75110134  0.19639739  1.0
  P5+  P19  1  0.70294477  0.68939550  0.32744763  1.0
  P5+  P19  1  0.53548043  0.73495893  0.84984160  1.0
  P5+  P19  1  0.70090866  0.05623706  0.18683454  1.0
  P5+  P19  1  0.68947030  0.06082779  0.50291610  1.0
  P5+  P19  1  0.70742796  0.24810768  0.88232022  1.0
  P5+  P19  1  0.67579483  0.65463472  0.48300447  1.0
  P5+  P19  1  0.69562397  0.40448678  0.51240873  1.0
  P5+  P19  1  0.68864970  0.39159109  0.85195849  1.0
  P5+  P19  1  0.76189971  0.58445615  0.23936660  1.0
  P5+  P19  1  0.69651349  0.73871546  0.52104606  1.0
  P5+  P19  1  0.67851015  0.72504887  0.83762818  1.0
  P5+  P19  1  0.50010753  0.53476597  0.71462681  1.0
  P5+  P19  1  0.73659836  0.29426383  0.47672215  1.0
  P5+  P19  1  0.75540947  0.37159303  0.58652645  1.0
  P5+  P19  1  0.67604385  0.56794451  0.56044890  1.0
  P5+  P19  1  0.86097912  0.40804801  0.52052293  1.0
  P5+  P19  1  0.80790340  0.35317569  0.79431254  1.0
  P5+  P19  1  0.85352331  0.73551629  0.17996354  1.0
  P5+  P19  1  0.63451971  0.83140687  0.44867692  1.0
  P5+  P19  1  0.61273912  0.58374430  0.75269238  1.0
  S2-  S20  1  0.17321647  0.26419894  0.10283068  1.0
  S2-  S20  1  0.15753107  0.26840282  0.44632902  1.0
  S2-  S20  1  0.15153561  0.26863133  0.76545094  1.0
  S2-  S20  1  0.18173598  0.46119168  0.41480539  1.0
  S2-  S20  1  0.14411207  0.60452106  0.42849026  1.0
  S2-  S20  1  0.16004424  0.61370974  0.77129642  1.0
  S2-  S20  1  0.14545182  0.94035159  0.11482909  1.0
  S2-  S20  1  0.16002957  0.92660538  0.44533968  1.0
  S2-  S20  1  0.15068751  0.93843743  0.77611895  1.0
  S2-  S20  1  0.31681888  0.28167513  0.11954822  1.0
  S2-  S20  1  0.32534253  0.25610206  0.43412872  1.0
  S2-  S20  1  0.29990999  0.26548241  0.74734351  1.0
  S2-  S20  1  0.32228501  0.60737823  0.10386552  1.0
  S2-  S20  1  0.31221365  0.60820198  0.43057308  1.0
  S2-  S20  1  0.30588948  0.59501418  0.76488354  1.0
  S2-  S20  1  0.31214044  0.93546281  0.44083677  1.0
  S2-  S20  1  0.32973771  0.95141844  0.77933111  1.0
  S2-  S20  1  0.48801947  0.27377997  0.09377587  1.0
  S2-  S20  1  0.48062358  0.26896259  0.76648755  1.0
  S2-  S20  1  0.48373291  0.60356229  0.09715948  1.0
  S2-  S20  1  0.48173120  0.59991350  0.74939086  1.0
  S2-  S20  1  0.25769020  0.72187933  0.40637530  1.0
  S2-  S20  1  0.46221586  0.59790164  0.43506091  1.0
  S2-  S20  1  0.49085163  0.93515081  0.76732828  1.0
  S2-  S20  1  0.66350686  0.27906089  0.11736118  1.0
  S2-  S20  1  0.65030338  0.28182291  0.42637635  1.0
  S2-  S20  1  0.66053703  0.27155907  0.77534470  1.0
  S2-  S20  1  0.63875386  0.58969531  0.09897563  1.0
  S2-  S20  1  0.65771091  0.61158197  0.78037628  1.0
  S2-  S20  1  0.65197498  0.93077062  0.10952524  1.0
  S2-  S20  1  0.64556954  0.94843192  0.43996094  1.0
  S2-  S20  1  0.65312998  0.94633487  0.78296186  1.0
  S2-  S20  1  0.82225407  0.26500255  0.11058310  1.0
  S2-  S20  1  0.81324468  0.27898965  0.42877799  1.0
  S2-  S20  1  0.68640290  0.45746462  0.75633166  1.0
  S2-  S20  1  0.62243702  0.33109157  0.47642650  1.0
  S2-  S20  1  0.82673113  0.61522078  0.44427209  1.0
  S2-  S20  1  0.59030096  0.66741713  0.86409123  1.0
  S2-  S20  1  0.82369498  0.93262819  0.43661971  1.0
  S2-  S20  1  0.82451148  0.93519085  0.77791115  1.0
  S2-  S20  1  0.99439155  0.27309457  0.11069714  1.0
  S2-  S20  1  0.98394854  0.27314297  0.43038808  1.0
  S2-  S20  1  0.97886364  0.26093478  0.76062035  1.0
  S2-  S20  1  0.96867991  0.60776625  0.11610350  1.0
  S2-  S20  1  0.98335127  0.61386429  0.45015475  1.0
  S2-  S20  1  0.97212790  0.59691543  0.77478123  1.0
  S2-  S20  1  0.98053065  0.92757898  0.09639513  1.0
  S2-  S20  1  0.98607265  0.93189986  0.41542256  1.0
  S2-  S20  1  0.98134133  0.93670854  0.77107839  1.0
  S2-  S21  1  0.04456421  0.16782513  0.10282612  1.0
  S2-  S21  1  0.04276246  0.16744962  0.45057639  1.0
  S2-  S21  1  0.02104189  0.49256918  0.43113223  1.0
  S2-  S21  1  0.04386745  0.49894679  0.75877978  1.0
  S2-  S21  1  0.04654577  0.82713549  0.43516926  1.0
  S2-  S21  1  0.04374095  0.83018591  0.76118940  1.0
  S2-  S21  1  0.21789928  0.17791484  0.20473723  1.0
  S2-  S21  1  0.20578848  0.18373590  0.43801210  1.0
  S2-  S21  1  0.21025117  0.16360276  0.78450262  1.0
  S2-  S21  1  0.21334734  0.49958007  0.44557394  1.0
  S2-  S21  1  0.21615479  0.51419903  0.75302192  1.0
  S2-  S21  1  0.20801323  0.83874244  0.43849563  1.0
  S2-  S21  1  0.20308681  0.83618142  0.77634258  1.0
  S2-  S21  1  0.37234214  0.16924599  0.10905356  1.0
  S2-  S21  1  0.37210132  0.17182592  0.44884582  1.0
  S2-  S21  1  0.35976002  0.15417829  0.75991041  1.0
  S2-  S21  1  0.37094898  0.50696778  0.10190469  1.0
  S2-  S21  1  0.38006026  0.52247441  0.44744305  1.0
  S2-  S21  1  0.29175007  0.66623320  0.25552455  1.0
  S2-  S21  1  0.34685507  0.82951563  0.73862048  1.0
  S2-  S21  1  0.53723986  0.16403050  0.08773343  1.0
  S2-  S21  1  0.53313796  0.16093615  0.76645538  1.0
  S2-  S21  1  0.48402919  0.60411733  0.18075190  1.0
  S2-  S21  1  0.53210479  0.48845665  0.42928352  1.0
  S2-  S21  1  0.52353666  0.50561276  0.76066289  1.0
  S2-  S21  1  0.52052299  0.82898259  0.08951497  1.0
  S2-  S21  1  0.54329249  0.83553348  0.42671757  1.0
  S2-  S21  1  0.54929100  0.83947461  0.76749548  1.0
  S2-  S21  1  0.68661741  0.16366719  0.09229113  1.0
  S2-  S21  1  0.70527018  0.50597401  0.10735100  1.0
  S2-  S21  1  0.68777840  0.50250626  0.42801888  1.0
  S2-  S21  1  0.72305313  0.50125562  0.76539753  1.0
  S2-  S21  1  0.70152535  0.83395182  0.08283128  1.0
  S2-  S21  1  0.70321907  0.83132556  0.43125039  1.0
  S2-  S21  1  0.69053694  0.82451310  0.76678741  1.0
  S2-  S21  1  0.87759181  0.17099566  0.08749984  1.0
  S2-  S21  1  0.86665934  0.15174130  0.42163847  1.0
  S2-  S21  1  0.87619361  0.17307847  0.77236427  1.0
  S2-  S21  1  0.87965847  0.50556317  0.08669928  1.0
  S2-  S21  1  0.86411825  0.50033115  0.42958857  1.0
  S2-  S21  1  0.85949984  0.49173424  0.77948751  1.0
  S2-  S21  1  0.87015787  0.85447705  0.09611488  1.0
  S2-  S21  1  0.87335233  0.83602341  0.42638589  1.0
  S2-  S21  1  0.86337219  0.83389475  0.75741199  1.0
  S2-  S22  1  0.12190572  0.18086995  0.80798280  1.0
  S2-  S22  1  0.14153550  0.53872104  0.16540059  1.0
  S2-  S22  1  0.13878916  0.54470811  0.82513592  1.0
  S2-  S22  1  0.10839562  0.87178748  0.12895696  1.0
  S2-  S22  1  0.28440472  0.19267919  0.13581551  1.0
  S2-  S22  1  0.30335681  0.53854386  0.14627271  1.0
  S2-  S22  1  0.30486235  0.87491659  0.15111904  1.0
  S2-  S22  1  0.44724710  0.19500672  0.13831229  1.0
  S2-  S22  1  0.46614749  0.18988234  0.47414011  1.0
  S2-  S22  1  0.45314011  0.54369157  0.47929447  1.0
  S2-  S22  1  0.44880260  0.52300566  0.80658745  1.0
  S2-  S22  1  0.47207780  0.85856480  0.14906389  1.0
  S2-  S22  1  0.46111980  0.87526191  0.48407161  1.0
  S2-  S22  1  0.62669920  0.18548354  0.47688833  1.0
  S2-  S22  1  0.63539551  0.20500564  0.81422501  1.0
  S2-  S22  1  0.62566248  0.54418766  0.15262452  1.0
  S2-  S22  1  0.62462758  0.54619944  0.48027524  1.0
  S2-  S22  1  0.63077670  0.53323599  0.80948086  1.0
  S2-  S22  1  0.81089584  0.21042047  0.49097460  1.0
  S2-  S22  1  0.80066410  0.20916902  0.80702404  1.0
  S2-  S22  1  0.80127809  0.53343486  0.12811349  1.0
  S2-  S22  1  0.78192841  0.52900407  0.80855436  1.0
  S2-  S22  1  0.78979360  0.86296235  0.14662171  1.0
  S2-  S23  1  0.07283454  0.06482437  0.18472054  1.0
  S2-  S23  1  0.07613325  0.05980348  0.51298264  1.0
  S2-  S23  1  0.07419003  0.06074421  0.84924332  1.0
  S2-  S23  1  0.06648224  0.38791967  0.17213267  1.0
  S2-  S23  1  0.07991064  0.38272432  0.50114292  1.0
  S2-  S23  1  0.07846429  0.39685803  0.83362904  1.0
  S2-  S23  1  0.06413476  0.71539109  0.16601297  1.0
  S2-  S23  1  0.06320774  0.73294673  0.50606447  1.0
  S2-  S23  1  0.07587510  0.73402894  0.84931308  1.0
  S2-  S23  1  0.23664313  0.38801585  0.17150740  1.0
  S2-  S23  1  0.25226910  0.38512833  0.49650315  1.0
  S2-  S23  1  0.22888695  0.39941308  0.83391732  1.0
  S2-  S23  1  0.24642199  0.72054176  0.17054543  1.0
  S2-  S23  1  0.47273125  0.39944802  0.73741682  1.0
  S2-  S23  1  0.23980305  0.72780162  0.83103326  1.0
  S2-  S23  1  0.42059148  0.06101045  0.17983099  1.0
  S2-  S23  1  0.39949506  0.04097531  0.50577275  1.0
  S2-  S23  1  0.43055342  0.38785309  0.16361452  1.0
  S2-  S23  1  0.41336357  0.39406561  0.50203962  1.0
  S2-  S23  1  0.40003252  0.38008476  0.83118627  1.0
  S2-  S23  1  0.40367220  0.71243084  0.15949829  1.0
  S2-  S23  1  0.40830898  0.71832915  0.50196792  1.0
  S2-  S23  1  0.40408653  0.70669745  0.83637196  1.0
  S2-  S23  1  0.57116547  0.05533372  0.17545732  1.0
  S2-  S23  1  0.58318374  0.11391551  0.74243388  1.0
  S2-  S23  1  0.57061420  0.38419995  0.17012290  1.0
  S2-  S23  1  0.58206742  0.39207147  0.51021723  1.0
  S2-  S23  1  0.39203850  0.52715830  0.77840001  1.0
  S2-  S23  1  0.56343904  0.71001683  0.16629184  1.0
  S2-  S23  1  0.74155618  0.68009824  0.29803723  1.0
  S2-  S23  1  0.57776675  0.70718075  0.83302462  1.0
  S2-  S23  1  0.73374386  0.05903379  0.16467844  1.0
  S2-  S23  1  0.72635034  0.05041832  0.51076517  1.0
  S2-  S23  1  0.74009855  0.05671607  0.84335307  1.0
  S2-  S23  1  0.72576892  0.37876292  0.16662903  1.0
  S2-  S23  1  0.74044962  0.40140713  0.83369101  1.0
  S2-  S23  1  0.73386258  0.72244439  0.49990701  1.0
  S2-  S23  1  0.72164541  0.73674263  0.83120192  1.0
  S2-  S23  1  0.90874753  0.04235088  0.16257978  1.0
  S2-  S23  1  0.68058005  0.32291521  0.46181895  1.0
  S2-  S23  1  0.90526623  0.05001095  0.82617810  1.0
  S2-  S23  1  0.90672744  0.39916827  0.18643941  1.0
  S2-  S23  1  0.91283764  0.39235098  0.52490982  1.0
  S2-  S23  1  0.91374902  0.39218653  0.82979549  1.0
  S2-  S23  1  0.89800185  0.71963338  0.16373697  1.0
  S2-  S23  1  0.89675364  0.71224336  0.48971069  1.0
  S2-  S23  1  0.90163549  0.72286957  0.85274960  1.0
  S2-  S24  1  0.10190416  0.16607633  0.03332834  1.0
  S2-  S24  1  0.09445096  0.15996168  0.37823038  1.0
  S2-  S24  1  0.09494091  0.17499826  0.71429940  1.0
  S2-  S24  1  0.08979798  0.47681097  0.03576162  1.0
  S2-  S24  1  0.10462302  0.49870890  0.36287585  1.0
  S2-  S24  1  0.09438225  0.50893880  0.71274822  1.0
  S2-  S24  1  0.10050625  0.84129039  0.04715792  1.0
  S2-  S24  1  0.10127249  0.83078837  0.38367567  1.0
  S2-  S24  1  0.09536589  0.82244820  0.70469417  1.0
  S2-  S24  1  0.24895030  0.14628426  0.04554394  1.0
  S2-  S24  1  0.26347677  0.17092902  0.39211119  1.0
  S2-  S24  1  0.25734117  0.14912124  0.70361202  1.0
  S2-  S24  1  0.24959284  0.47665695  0.03102550  1.0
  S2-  S24  1  0.25803871  0.48828266  0.36764303  1.0
  S2-  S24  1  0.25019027  0.49558117  0.72220282  1.0
  S2-  S24  1  0.27261875  0.83289494  0.05244057  1.0
  S2-  S24  1  0.25452299  0.81151771  0.36698837  1.0
  S2-  S24  1  0.25264525  0.82855599  0.71763845  1.0
  S2-  S24  1  0.44353366  0.16110598  0.03339498  1.0
  S2-  S24  1  0.42771996  0.16132543  0.38168630  1.0
  S2-  S24  1  0.42697912  0.16112248  0.70444535  1.0
  S2-  S24  1  0.42570375  0.49834066  0.02778879  1.0
  S2-  S24  1  0.42611143  0.49985966  0.39046502  1.0
  S2-  S24  1  0.42672652  0.50418591  0.72562319  1.0
  S2-  S24  1  0.42231766  0.82235620  0.03863614  1.0
  S2-  S24  1  0.42911091  0.83669701  0.37314871  1.0
  S2-  S24  1  0.43767411  0.82024688  0.69964552  1.0
  S2-  S24  1  0.60117343  0.17124557  0.04892908  1.0
  S2-  S24  1  0.60231110  0.17753955  0.39281841  1.0
  S2-  S24  1  0.59277318  0.15679453  0.71657824  1.0
  S2-  S24  1  0.60160900  0.49751749  0.04292481  1.0
  S2-  S24  1  0.59261604  0.49259443  0.37285751  1.0
  S2-  S24  1  0.58932415  0.49618363  0.70386101  1.0
  S2-  S24  1  0.58966766  0.80894911  0.03148232  1.0
  S2-  S24  1  0.60042818  0.81938008  0.37980654  1.0
  S2-  S24  1  0.58885057  0.83395729  0.70783734  1.0
  S2-  S24  1  0.75764277  0.16101667  0.03152282  1.0
  S2-  S24  1  0.77175456  0.17187931  0.37909742  1.0
  S2-  S24  1  0.76667371  0.16731780  0.71202319  1.0
  S2-  S24  1  0.75521888  0.50774027  0.04247982  1.0
  S2-  S24  1  0.75948255  0.50812909  0.38481645  1.0
  S2-  S24  1  0.75992440  0.48543511  0.71297825  1.0
  S2-  S24  1  0.78665190  0.83486800  0.05482804  1.0
  S2-  S24  1  0.76544234  0.82435721  0.37358185  1.0
  S2-  S24  1  0.75589797  0.82221061  0.70397141  1.0
  S2-  S24  1  0.92336479  0.15841610  0.03897709  1.0
  S2-  S24  1  0.92918998  0.16122922  0.37795800  1.0
  S2-  S24  1  0.93981609  0.16121132  0.72984288  1.0
  S2-  S24  1  0.92873878  0.48998774  0.05248046  1.0
  S2-  S24  1  0.92010490  0.47306065  0.36808977  1.0
  S2-  S24  1  0.92905712  0.50784868  0.70683515  1.0
  S2-  S24  1  0.92748547  0.83823470  0.04912108  1.0
  S2-  S24  1  0.92358187  0.82063189  0.37595486  1.0
  S2-  S24  1  0.92473387  0.82053324  0.70109826  1.0
  S2-  S25  1  0.06369395  0.16415757  0.29339196  1.0
  S2-  S25  1  0.08210073  0.18092643  0.62862325  1.0
  S2-  S25  1  0.07043608  0.17083799  0.96428856  1.0
  S2-  S25  1  0.05657470  0.50164844  0.27863517  1.0
  S2-  S25  1  0.39689650  0.33258896  0.51602822  1.0
  S2-  S25  1  0.07393169  0.50290397  0.95225743  1.0
  S2-  S25  1  0.06573658  0.83337293  0.29284328  1.0
  S2-  S25  1  0.07438064  0.83773439  0.94853703  1.0
  S2-  S25  1  0.23897187  0.17505588  0.62694504  1.0
  S2-  S25  1  0.23864750  0.16476600  0.93580444  1.0
  S2-  S25  1  0.25126355  0.49473341  0.27447548  1.0
  S2-  S25  1  0.23635929  0.49126453  0.61251370  1.0
  S2-  S25  1  0.24885344  0.52153885  0.96717755  1.0
  S2-  S25  1  0.23591752  0.83900883  0.27547267  1.0
  S2-  S25  1  0.14525944  0.91101781  0.67702827  1.0
  S2-  S25  1  0.25082381  0.82261265  0.95169684  1.0
  S2-  S25  1  0.38982580  0.16841183  0.27882476  1.0
  S2-  S25  1  0.39631354  0.18073004  0.62617005  1.0
  S2-  S25  1  0.41160375  0.16816580  0.95666646  1.0
  S2-  S25  1  0.41961215  0.50609901  0.30014305  1.0
  S2-  S25  1  0.40309040  0.51234951  0.62085942  1.0
  S2-  S25  1  0.39058722  0.50605672  0.95006768  1.0
  S2-  S25  1  0.39336036  0.84112132  0.28121444  1.0
  S2-  S25  1  0.42827482  0.82672047  0.61570747  1.0
  S2-  S25  1  0.41324879  0.83829917  0.96533956  1.0
  S2-  S25  1  0.57468650  0.16772530  0.27872366  1.0
  S2-  S25  1  0.47572897  0.32553616  0.69687274  1.0
  S2-  S25  1  0.58034220  0.50501893  0.28968570  1.0
  S2-  S25  1  0.56605713  0.51014691  0.59965007  1.0
  S2-  S25  1  0.57929117  0.50716169  0.95739503  1.0
  S2-  S25  1  0.57148929  0.82751086  0.26777381  1.0
  S2-  S25  1  0.58033808  0.85090535  0.61545075  1.0
  S2-  S25  1  0.56623587  0.84599860  0.96064463  1.0
  S2-  S25  1  0.76711147  0.18214379  0.30640937  1.0
  S2-  S25  1  0.73471234  0.17735331  0.63610118  1.0
  S2-  S25  1  0.73803054  0.17176998  0.95783806  1.0
  S2-  S25  1  0.73487476  0.50846171  0.29226421  1.0
  S2-  S25  1  0.75150910  0.50447561  0.63161040  1.0
  S2-  S25  1  0.74003148  0.51168634  0.95717817  1.0
  S2-  S25  1  0.74635256  0.84578911  0.28574502  1.0
  S2-  S25  1  0.74843034  0.83800823  0.62193429  1.0
  S2-  S25  1  0.73457229  0.84204930  0.95697618  1.0
  S2-  S25  1  0.91045939  0.17618289  0.29749801  1.0
  S2-  S25  1  0.92954201  0.17313451  0.62368780  1.0
  S2-  S25  1  0.88648512  0.16239426  0.95949555  1.0
  S2-  S25  1  0.90885294  0.49438251  0.30724220  1.0
  S2-  S25  1  0.91027495  0.51012581  0.64387798  1.0
  S2-  S25  1  0.92284611  0.51291583  0.96975826  1.0
  S2-  S25  1  0.91341157  0.83736043  0.29399132  1.0
  S2-  S25  1  0.91081145  0.83835343  0.61714597  1.0
  S2-  S25  1  0.90159623  0.83086444  0.95425412  1.0
  S2-  S26  1  0.07875400  0.28304818  0.14583597  1.0
  S2-  S26  1  0.09061976  0.28446625  0.50142417  1.0
  S2-  S26  1  0.09908284  0.28286290  0.82113992  1.0
  S2-  S26  1  0.09797622  0.60388081  0.16800214  1.0
  S2-  S26  1  0.10140357  0.62523336  0.50007114  1.0
  S2-  S26  1  0.08251425  0.60217411  0.81265860  1.0
  S2-  S26  1  0.08150478  0.95494113  0.16932465  1.0
  S2-  S26  1  0.09718291  0.94646166  0.51154765  1.0
  S2-  S26  1  0.09242360  0.94867020  0.82781283  1.0
  S2-  S26  1  0.25815663  0.28556961  0.15737885  1.0
  S2-  S26  1  0.25527680  0.28600873  0.49125678  1.0
  S2-  S26  1  0.25955880  0.27711397  0.82674278  1.0
  S2-  S26  1  0.25207897  0.60784478  0.15120800  1.0
  S2-  S26  1  0.26678737  0.61491046  0.50373910  1.0
  S2-  S26  1  0.26666375  0.60941602  0.83510767  1.0
  S2-  S26  1  0.25880529  0.94536910  0.17035239  1.0
  S2-  S26  1  0.26302283  0.94368414  0.49812146  1.0
  S2-  S26  1  0.24945565  0.94889976  0.81422120  1.0
  S2-  S26  1  0.41933395  0.28516665  0.13993047  1.0
  S2-  S26  1  0.44314168  0.28733950  0.48592598  1.0
  S2-  S26  1  0.45285987  0.30333769  0.83935580  1.0
  S2-  S26  1  0.42266893  0.62808061  0.16191915  1.0
  S2-  S26  1  0.43049187  0.62400183  0.49732336  1.0
  S2-  S26  1  0.42070109  0.60235028  0.81817024  1.0
  S2-  S26  1  0.42062488  0.93597783  0.14749161  1.0
  S2-  S26  1  0.42148816  0.93066304  0.48155232  1.0
  S2-  S26  1  0.44126591  0.94374463  0.82655115  1.0
  S2-  S26  1  0.58889321  0.27717638  0.16380683  1.0
  S2-  S26  1  0.59585046  0.27668410  0.49236166  1.0
  S2-  S26  1  0.59966450  0.26694796  0.82488633  1.0
  S2-  S26  1  0.59177907  0.60666124  0.15787063  1.0
  S2-  S26  1  0.58674105  0.61895681  0.48408075  1.0
  S2-  S26  1  0.60130559  0.61277817  0.82592199  1.0
  S2-  S26  1  0.58698729  0.95571212  0.15724391  1.0
  S2-  S26  1  0.58569031  0.95589305  0.48834260  1.0
  S2-  S26  1  0.59400281  0.95386973  0.83135475  1.0
  S2-  S26  1  0.77155501  0.27282118  0.15996671  1.0
  S2-  S26  1  0.75983612  0.28548491  0.50623810  1.0
  S2-  S26  1  0.75958885  0.27888514  0.81566916  1.0
  S2-  S26  1  0.75858309  0.60776033  0.16401949  1.0
  S2-  S26  1  0.75530566  0.61132296  0.48126676  1.0
  S2-  S26  1  0.74910031  0.62959975  0.83119696  1.0
  S2-  S26  1  0.76033070  0.93881522  0.16576601  1.0
  S2-  S26  1  0.76303202  0.93977069  0.48473487  1.0
  S2-  S26  1  0.75317276  0.94650304  0.82750591  1.0
  S2-  S26  1  0.92968359  0.29137674  0.15958685  1.0
  S2-  S26  1  0.91696993  0.28008319  0.47891148  1.0
  S2-  S26  1  0.93203599  0.28093427  0.82664007  1.0
  S2-  S26  1  0.92508695  0.62132945  0.17009353  1.0
  S2-  S26  1  0.92548577  0.61856199  0.50257308  1.0
  S2-  S26  1  0.92825648  0.61162884  0.83066016  1.0
  S2-  S26  1  0.91754924  0.94736737  0.15741569  1.0
  S2-  S26  1  0.91828805  0.93173430  0.47996934  1.0
  S2-  S26  1  0.92428080  0.95453271  0.83186289  1.0
  S2-  S27  1  0.02859473  0.28972633  0.20880371  1.0
  S2-  S27  1  0.01621149  0.27045569  0.54661186  1.0
  S2-  S27  1  0.00609063  0.27994990  0.87136609  1.0
  S2-  S27  1  0.02161067  0.60220543  0.19505062  1.0
  S2-  S27  1  0.00579627  0.59502781  0.52695752  1.0
  S2-  S27  1  0.01550204  0.62534310  0.87541307  1.0
  S2-  S27  1  0.01668560  0.94147317  0.19992158  1.0
  S2-  S27  1  0.01561970  0.94618875  0.54851950  1.0
  S2-  S27  1  0.00828054  0.94411741  0.87012169  1.0
  S2-  S27  1  0.18500150  0.29266252  0.21008951  1.0
  S2-  S27  1  0.17878697  0.28069202  0.52750370  1.0
  S2-  S27  1  0.17724891  0.27769810  0.87512060  1.0
  S2-  S27  1  0.19036917  0.61205432  0.20795514  1.0
  S2-  S27  1  0.18343456  0.60207669  0.52940513  1.0
  S2-  S27  1  0.18559773  0.61887471  0.86493751  1.0
  S2-  S27  1  0.17653002  0.94518790  0.19347098  1.0
  S2-  S27  1  0.18133465  0.94488063  0.52988234  1.0
  S2-  S27  1  0.19590070  0.95788342  0.88027336  1.0
  S2-  S27  1  0.33451693  0.27333441  0.19361489  1.0
  S2-  S27  1  0.33328707  0.27130014  0.52595695  1.0
  S2-  S27  1  0.34719056  0.27899256  0.85538997  1.0
  S2-  S27  1  0.34746768  0.61357175  0.20013589  1.0
  S2-  S27  1  0.35561977  0.61562990  0.53265827  1.0
  S2-  S27  1  0.34982530  0.60529352  0.86265123  1.0
  S2-  S27  1  0.34488651  0.95484947  0.19968477  1.0
  S2-  S27  1  0.36054808  0.94829293  0.52980942  1.0
  S2-  S27  1  0.35508361  0.95262572  0.86956547  1.0
  S2-  S27  1  0.51675274  0.27412158  0.19901376  1.0
  S2-  S27  1  0.51804370  0.27388366  0.52386473  1.0
  S2-  S27  1  0.52983452  0.28417107  0.86717124  1.0
  S2-  S27  1  0.51556139  0.59939220  0.18053679  1.0
  S2-  S27  1  0.52717026  0.61424696  0.53619801  1.0
  S2-  S27  1  0.52785635  0.64030673  0.88472368  1.0
  S2-  S27  1  0.50452512  0.93097060  0.20140708  1.0
  S2-  S27  1  0.52617017  0.95058502  0.53083081  1.0
  S2-  S27  1  0.51871134  0.93929343  0.87072084  1.0
  S2-  S27  1  0.69099120  0.27419102  0.20950811  1.0
  S2-  S27  1  0.68646128  0.28319491  0.52523531  1.0
  S2-  S27  1  0.68441246  0.27304211  0.86913957  1.0
  S2-  S27  1  0.69717542  0.61476848  0.19705291  1.0
  S2-  S27  1  0.69047967  0.61574482  0.55249825  1.0
  S2-  S27  1  0.68482666  0.60715908  0.87180466  1.0
  S2-  S27  1  0.68337948  0.94628190  0.19313265  1.0
  S2-  S27  1  0.68329497  0.94585189  0.53263149  1.0
  S2-  S27  1  0.68006874  0.94809059  0.85962250  1.0
  S2-  S27  1  0.84310552  0.28508782  0.20538320  1.0
  S2-  S27  1  0.83529332  0.26300660  0.51748424  1.0
  S2-  S27  1  0.85282330  0.28895614  0.86935225  1.0
  S2-  S27  1  0.84489048  0.61354285  0.19855723  1.0
  S2-  S27  1  0.83586061  0.60029243  0.51611873  1.0
  S2-  S27  1  0.87373570  0.61972950  0.86989259  1.0
  S2-  S27  1  0.85863806  0.94064390  0.20922160  1.0
  S2-  S27  1  0.84986005  0.93985430  0.53718985  1.0
  S2-  S27  1  0.85307384  0.94904754  0.87034702  1.0
  S2-  S28  1  0.06441816  0.33069802  0.08882008  1.0
  S2-  S28  1  0.23825433  0.49231281  0.23277636  1.0
  S2-  S28  1  0.05571863  0.31281207  0.73299707  1.0
  S2-  S28  1  0.05124140  0.65383028  0.06765200  1.0
  S2-  S28  1  0.05739318  0.65278815  0.38734284  1.0
  S2-  S28  1  0.06849913  0.64982322  0.72715644  1.0
  S2-  S28  1  0.12577338  0.60453436  0.31544525  1.0
  S2-  S28  1  0.05910926  0.98018748  0.40120141  1.0
  S2-  S28  1  0.21178388  0.32293438  0.06260176  1.0
  S2-  S28  1  0.22819610  0.32510792  0.40565395  1.0
  S2-  S28  1  0.23791311  0.65571609  0.05986863  1.0
  S2-  S28  1  0.46790273  0.40977740  0.59206304  1.0
  S2-  S28  1  0.22008215  0.98294097  0.39606396  1.0
  S2-  S28  1  0.21163285  0.98633767  0.72474300  1.0
  S2-  S28  1  0.29669452  0.34558992  0.68114884  1.0
  S2-  S28  1  0.47354845  0.41209743  0.42422689  1.0
  S2-  S28  1  0.38933045  0.98992913  0.06597163  1.0
  S2-  S28  1  0.40793327  0.98851015  0.40013304  1.0
  S2-  S28  1  0.40211630  0.98709964  0.73527069  1.0
  S2-  S28  1  0.56755056  0.31872819  0.06825219  1.0
  S2-  S28  1  0.57753355  0.33174825  0.40732980  1.0
  S2-  S28  1  0.55721105  0.31848054  0.72199432  1.0
  S2-  S28  1  0.57659389  0.66850933  0.06737410  1.0
  S2-  S28  1  0.56373538  0.99137082  0.07582732  1.0
  S2-  S28  1  0.64709614  0.82353756  0.56186422  1.0
  S2-  S28  1  0.56257151  0.98737470  0.73342684  1.0
  S2-  S28  1  0.72571109  0.32049662  0.05647266  1.0
  S2-  S28  1  0.65503697  0.18886371  0.63412426  1.0
  S2-  S28  1  0.72034783  0.32917391  0.73153289  1.0
  S2-  S28  1  0.74617933  0.66184347  0.07379379  1.0
  S2-  S28  1  0.55815364  0.65095464  0.23220743  1.0
  S2-  S28  1  0.71235830  0.97878167  0.39990530  1.0
  S2-  S28  1  0.71183546  0.98762349  0.71949861  1.0
  S2-  S28  1  0.89110732  0.32534090  0.07307651  1.0
  S2-  S28  1  0.47170750  0.40422282  0.24428221  1.0
  S2-  S28  1  0.92700492  0.32156175  0.73209771  1.0
  S2-  S28  1  0.88739296  0.65494617  0.39357589  1.0
  S2-  S28  1  0.89197077  0.65688300  0.73141158  1.0
  S2-  S28  1  0.88699017  0.99361456  0.06580157  1.0
  S2-  S28  1  0.89365976  0.97549291  0.39551904  1.0
  S2-  S28  1  0.87701799  0.98887581  0.73300376  1.0
  S2-  S29  1  0.04380261  0.05434730  0.32461142  1.0
  S2-  S29  1  0.03044153  0.04701069  0.00194232  1.0
  S2-  S29  1  0.03808096  0.37457114  0.30036046  1.0
  S2-  S29  1  0.03346777  0.39513709  0.65286680  1.0
  S2-  S29  1  0.01530345  0.38323017  0.97807490  1.0
  S2-  S29  1  0.01423263  0.71831549  0.63704371  1.0
  S2-  S29  1  0.02314736  0.73205894  0.97618251  1.0
  S2-  S29  1  0.19360360  0.04551998  0.31279719  1.0
  S2-  S29  1  0.52102379  0.48471886  0.37475492  1.0
  S2-  S29  1  0.19966593  0.04388322  0.97779591  1.0
  S2-  S29  1  0.20389501  0.37820001  0.31226724  1.0
  S2-  S29  1  0.19705835  0.71720258  0.31699040  1.0
  S2-  S29  1  0.21080557  0.73495528  0.63588855  1.0
  S2-  S29  1  0.46586368  0.54047901  0.73655625  1.0
  S2-  S29  1  0.37800180  0.06185527  0.33154951  1.0
  S2-  S29  1  0.47392496  0.35274137  0.53701603  1.0
  S2-  S29  1  0.38120876  0.05264575  0.99566079  1.0
  S2-  S29  1  0.55143872  0.53318476  0.36083052  1.0
  S2-  S29  1  0.35961208  0.37503199  0.64344823  1.0
  S2-  S29  1  0.36582987  0.37654639  0.97805450  1.0
  S2-  S29  1  0.36041304  0.70873941  0.31995411  1.0
  S2-  S29  1  0.38032193  0.72707519  0.65449503  1.0
  S2-  S29  1  0.28130531  0.04219278  0.48272172  1.0
  S2-  S29  1  0.29302192  0.40950440  0.50088116  1.0
  S2-  S29  1  0.38996788  0.05198298  0.91931080  1.0
  S2-  S29  1  0.52958721  0.39468286  0.30954642  1.0
  S2-  S29  1  0.52481725  0.36878627  0.64745959  1.0
  S2-  S29  1  0.38807841  0.21412856  0.73562569  1.0
  S2-  S29  1  0.54535706  0.71694345  0.31236484  1.0
  S2-  S29  1  0.54851544  0.71239118  0.66009730  1.0
  S2-  S29  1  0.52376063  0.71501854  0.98353040  1.0
  S2-  S29  1  0.70106278  0.05355855  0.31264132  1.0
  S2-  S29  1  0.69142996  0.06418406  0.64743216  1.0
  S2-  S29  1  0.37165799  0.61550374  0.21251347  1.0
  S2-  S29  1  0.46122517  0.69767323  0.36393271  1.0
  S2-  S29  1  0.54954973  0.35578097  0.53840052  1.0
  S2-  S29  1  0.69592051  0.72171661  0.31199138  1.0
  S2-  S29  1  0.67973621  0.70103641  0.63159491  1.0
  S2-  S29  1  0.70106877  0.73700240  0.99409426  1.0
  S2-  S29  1  0.62233906  0.43719214  0.37389763  1.0
  S2-  S29  1  0.88359807  0.04087748  0.65366223  1.0
  S2-  S29  1  0.82001525  0.56074516  0.26464401  1.0
  S2-  S29  1  0.59610901  0.66703610  0.38083933  1.0
  S2-  S29  1  0.86964029  0.37681290  0.98723211  1.0
  S2-  S29  1  0.87018632  0.71865025  0.33076421  1.0
  S2-  S29  1  0.86850189  0.72860916  0.66322837  1.0
  S2-  S29  1  0.63538634  0.67919434  0.85889633  1.0
  S2-  S30  1  0.10665160  0.09464094  0.09880852  1.0
  S2-  S30  1  0.10444709  0.10945311  0.44394275  1.0
  S2-  S30  1  0.10739851  0.11247364  0.77648149  1.0
  S2-  S30  1  0.09662142  0.44637920  0.12009428  1.0
  S2-  S30  1  0.09364026  0.44071813  0.44267979  1.0
  S2-  S30  1  0.08648907  0.43844341  0.76067502  1.0
  S2-  S30  1  0.09241039  0.77527727  0.10672814  1.0
  S2-  S30  1  0.09415680  0.78355341  0.44424129  1.0
  S2-  S30  1  0.09183844  0.78445126  0.77785913  1.0
  S2-  S30  1  0.24787920  0.11300826  0.09596942  1.0
  S2-  S30  1  0.27124403  0.10596333  0.42596782  1.0
  S2-  S30  1  0.25918189  0.10265548  0.77282354  1.0
  S2-  S30  1  0.25498788  0.44363709  0.11298025  1.0
  S2-  S30  1  0.27212022  0.44794486  0.43832003  1.0
  S2-  S30  1  0.26671993  0.44978108  0.76418876  1.0
  S2-  S30  1  0.26597438  0.76754178  0.10499175  1.0
  S2-  S30  1  0.25763876  0.79419213  0.44590147  1.0
  S2-  S30  1  0.24881948  0.77711461  0.76196637  1.0
  S2-  S30  1  0.42348446  0.11173529  0.09430753  1.0
  S2-  S30  1  0.43657328  0.11658403  0.44218354  1.0
  S2-  S30  1  0.42996691  0.11619411  0.77735974  1.0
  S2-  S30  1  0.42880217  0.43238062  0.09282799  1.0
  S2-  S30  1  0.42236928  0.43095511  0.43225075  1.0
  S2-  S30  1  0.44338827  0.45467466  0.78156394  1.0
  S2-  S30  1  0.44020588  0.79638799  0.11750002  1.0
  S2-  S30  1  0.43238497  0.76460914  0.44338840  1.0
  S2-  S30  1  0.43152486  0.77642882  0.76696098  1.0
  S2-  S30  1  0.59378293  0.12138556  0.10512637  1.0
  S2-  S30  1  0.58883563  0.10374624  0.43361689  1.0
  S2-  S30  1  0.59057548  0.10534458  0.75557457  1.0
  S2-  S30  1  0.60270167  0.44258901  0.09519694  1.0
  S2-  S30  1  0.59425486  0.44856486  0.43717681  1.0
  S2-  S30  1  0.59678396  0.44415935  0.75946731  1.0
  S2-  S30  1  0.59854406  0.76226690  0.10236270  1.0
  S2-  S30  1  0.59963270  0.77521080  0.43896692  1.0
  S2-  S30  1  0.59373014  0.78030120  0.77751927  1.0
  S2-  S30  1  0.75691605  0.11631714  0.11637837  1.0
  S2-  S30  1  0.76264860  0.10608075  0.45246370  1.0
  S2-  S30  1  0.76309010  0.11246950  0.77194348  1.0
  S2-  S30  1  0.76459731  0.44084231  0.10364456  1.0
  S2-  S30  1  0.76869900  0.44054205  0.43301357  1.0
  S2-  S30  1  0.75648218  0.43424255  0.75959098  1.0
  S2-  S30  1  0.75573853  0.77711812  0.10759651  1.0
  S2-  S30  1  0.77398234  0.77762001  0.44225967  1.0
  S2-  S30  1  0.75835311  0.75891707  0.75375754  1.0
  S2-  S30  1  0.93697008  0.11792182  0.11316205  1.0
  S2-  S30  1  0.92177478  0.09310792  0.42088010  1.0
  S2-  S30  1  0.92277270  0.11592409  0.76656785  1.0
  S2-  S30  1  0.94626956  0.45655266  0.12348940  1.0
  S2-  S30  1  0.92207478  0.44805837  0.43176775  1.0
  S2-  S30  1  0.92905776  0.43678331  0.77676729  1.0
  S2-  S30  1  0.91683601  0.76018850  0.11070409  1.0
  S2-  S30  1  0.92932775  0.76782500  0.43185406  1.0
  S2-  S30  1  0.92364076  0.77717260  0.77429899  1.0
  S2-  S31  1  0.15512464  0.05662256  0.13496871  1.0
  S2-  S31  1  0.15307727  0.03767125  0.45620923  1.0
  S2-  S31  1  0.14357411  0.06316692  0.79507746  1.0
  S2-  S31  1  0.13983675  0.39252656  0.12502717  1.0
  S2-  S31  1  0.15235401  0.40845696  0.47937595  1.0
  S2-  S31  1  0.14703306  0.38669594  0.80592683  1.0
  S2-  S31  1  0.15480525  0.72174012  0.13520759  1.0
  S2-  S31  1  0.13242470  0.70638548  0.45660974  1.0
  S2-  S31  1  0.14535594  0.72617951  0.80177926  1.0
  S2-  S31  1  0.30976797  0.05583526  0.12863962  1.0
  S2-  S31  1  0.33394225  0.05777496  0.45907229  1.0
  S2-  S31  1  0.32925656  0.04890982  0.79330230  1.0
  S2-  S31  1  0.33447820  0.39075690  0.14360026  1.0
  S2-  S31  1  0.32132581  0.38595794  0.46244057  1.0
  S2-  S31  1  0.31653377  0.40174084  0.80552654  1.0
  S2-  S31  1  0.32648024  0.72041786  0.12918036  1.0
  S2-  S31  1  0.30546042  0.72671803  0.47891698  1.0
  S2-  S31  1  0.30973431  0.72554721  0.78865578  1.0
  S2-  S31  1  0.47850996  0.05674611  0.11904996  1.0
  S2-  S31  1  0.48011686  0.04713963  0.46828476  1.0
  S2-  S31  1  0.48349294  0.06258583  0.80003648  1.0
  S2-  S31  1  0.46726023  0.37481798  0.11048064  1.0
  S2-  S31  1  0.49431963  0.40999265  0.47903461  1.0
  S2-  S31  1  0.49926585  0.39760746  0.80226805  1.0
  S2-  S31  1  0.49170967  0.71692074  0.13014552  1.0
  S2-  S31  1  0.48028294  0.71968081  0.47052804  1.0
  S2-  S31  1  0.47916173  0.72881475  0.80802273  1.0
  S2-  S31  1  0.65697516  0.07128384  0.14989817  1.0
  S2-  S31  1  0.65816197  0.05499130  0.47124312  1.0
  S2-  S31  1  0.65348805  0.05453115  0.79762978  1.0
  S2-  S31  1  0.63096737  0.39399138  0.13882414  1.0
  S2-  S31  1  0.64101885  0.39301218  0.46127953  1.0
  S2-  S31  1  0.64944999  0.39914837  0.79523017  1.0
  S2-  S31  1  0.64553065  0.73677841  0.13562098  1.0
  S2-  S31  1  0.65531880  0.70717954  0.45149966  1.0
  S2-  S31  1  0.64026652  0.71689564  0.78520644  1.0
  S2-  S31  1  0.81996211  0.05819545  0.12789248  1.0
  S2-  S31  1  0.80718539  0.04844340  0.45327746  1.0
  S2-  S31  1  0.79148364  0.05367645  0.79037896  1.0
  S2-  S31  1  0.81041935  0.37895018  0.13542532  1.0
  S2-  S31  1  0.83376286  0.38049571  0.47921319  1.0
  S2-  S31  1  0.81890611  0.38805736  0.79764988  1.0
  S2-  S31  1  0.81805363  0.73108009  0.12742378  1.0
  S2-  S31  1  0.81671727  0.73194460  0.47745253  1.0
  S2-  S31  1  0.80596515  0.71949476  0.80258037  1.0
  S2-  S31  1  0.99047335  0.06289626  0.14029888  1.0
  S2-  S31  1  0.98790895  0.05739713  0.48083203  1.0
  S2-  S31  1  0.97905339  0.05483509  0.79089757  1.0
  S2-  S31  1  0.97320330  0.39057532  0.12590698  1.0
  S2-  S31  1  0.98614517  0.40181810  0.48359129  1.0
  S2-  S31  1  0.00515895  0.40199118  0.82798066  1.0
  S2-  S31  1  0.98372261  0.71322955  0.12293825  1.0
  S2-  S31  1  0.99417188  0.72153164  0.47003747  1.0
  S2-  S31  1  0.97675925  0.71735035  0.80016672  1.0
  S2-  S32  1  0.02840303  0.13413321  0.86699063  1.0
  S2-  S32  1  0.01478228  0.45182631  0.51926545  1.0
  S2-  S32  1  0.04657253  0.46096998  0.84151331  1.0
  S2-  S32  1  0.04630532  0.79151024  0.52019974  1.0
  S2-  S32  1  0.20409810  0.12610136  0.18114916  1.0
  S2-  S32  1  0.20085700  0.14805448  0.53637593  1.0
  S2-  S32  1  0.20228384  0.11288268  0.85491914  1.0
  S2-  S32  1  0.20421851  0.78744838  0.52187227  1.0
  S2-  S32  1  0.21338625  0.80351516  0.85470510  1.0
  S2-  S32  1  0.37184179  0.47158188  0.19241439  1.0
  S2-  S32  1  0.38128831  0.46867138  0.53251046  1.0
  S2-  S32  1  0.54056945  0.12262059  0.52146642  1.0
  S2-  S32  1  0.53644826  0.14097481  0.86261177  1.0
  S2-  S32  1  0.53162174  0.45408271  0.17252988  1.0
  S2-  S32  1  0.53722758  0.45899309  0.85980646  1.0
  S2-  S32  1  0.52697741  0.81241677  0.19679012  1.0
  S2-  S32  1  0.54169035  0.81320039  0.53597075  1.0
  S2-  S32  1  0.69942646  0.46590498  0.50676396  1.0
  S2-  S32  1  0.71125029  0.79598992  0.17506216  1.0
  S2-  S32  1  0.86227403  0.13947089  0.53618877  1.0
  S2-  S32  1  0.86746554  0.45668992  0.50860829  1.0
  S2-  S33  1  0.15086822  0.06279446  0.03520486  1.0
  S2-  S33  1  0.13496552  0.06472824  0.37316657  1.0
  S2-  S33  1  0.12753764  0.04895102  0.68637686  1.0
  S2-  S33  1  0.13226987  0.38622028  0.04335529  1.0
  S2-  S33  1  0.13052409  0.38135127  0.35264606  1.0
  S2-  S33  1  0.13169897  0.37637289  0.69370113  1.0
  S2-  S33  1  0.12984455  0.73562819  0.03576407  1.0
  S2-  S33  1  0.15498339  0.72356779  0.34560920  1.0
  S2-  S33  1  0.15136200  0.72991731  0.70990961  1.0
  S2-  S33  1  0.29617158  0.05851304  0.03311008  1.0
  S2-  S33  1  0.29814547  0.04380277  0.38286722  1.0
  S2-  S33  1  0.31265009  0.06254328  0.71365087  1.0
  S2-  S33  1  0.30821383  0.38632970  0.04260513  1.0
  S2-  S33  1  0.31004082  0.38665945  0.37282743  1.0
  S2-  S33  1  0.30315529  0.39403203  0.70528977  1.0
  S2-  S33  1  0.31431398  0.71993443  0.03710067  1.0
  S2-  S33  1  0.32091008  0.72402134  0.37183826  1.0
  S2-  S33  1  0.32300498  0.73109616  0.69458722  1.0
  S2-  S33  1  0.46645665  0.06488259  0.03771149  1.0
  S2-  S33  1  0.47823064  0.07768076  0.36936054  1.0
  S2-  S33  1  0.46557758  0.04181347  0.70309172  1.0
  S2-  S33  1  0.46738071  0.40141239  0.04305424  1.0
  S2-  S33  1  0.49248512  0.39786543  0.37074950  1.0
  S2-  S33  1  0.47308424  0.38561615  0.70130381  1.0
  S2-  S33  1  0.46942937  0.72494063  0.02598698  1.0
  S2-  S33  1  0.47591307  0.73272025  0.35718565  1.0
  S2-  S33  1  0.46599395  0.72701376  0.68105473  1.0
  S2-  S33  1  0.65056819  0.05270149  0.02731767  1.0
  S2-  S33  1  0.63658057  0.06008033  0.36109159  1.0
  S2-  S33  1  0.64713091  0.06236172  0.69688522  1.0
  S2-  S33  1  0.62967742  0.37902841  0.01795138  1.0
  S2-  S33  1  0.63902707  0.38502817  0.37934748  1.0
  S2-  S33  1  0.63503293  0.38045417  0.68713851  1.0
  S2-  S33  1  0.64650030  0.72488693  0.04326844  1.0
  S2-  S33  1  0.63345094  0.72068027  0.37336154  1.0
  S2-  S33  1  0.63207949  0.72980539  0.69860829  1.0
  S2-  S33  1  0.81662764  0.07470012  0.03807172  1.0
  S2-  S33  1  0.80179219  0.06467587  0.35956560  1.0
  S2-  S33  1  0.82179380  0.07146101  0.70016193  1.0
  S2-  S33  1  0.78845169  0.38212604  0.01792429  1.0
  S2-  S33  1  0.81529042  0.40569137  0.37972710  1.0
  S2-  S33  1  0.80353883  0.39519754  0.69413162  1.0
  S2-  S33  1  0.81485192  0.72930947  0.04325152  1.0
  S2-  S33  1  0.79813162  0.72408613  0.37081467  1.0
  S2-  S33  1  0.81503555  0.72026399  0.70730965  1.0
  S2-  S33  1  0.97084783  0.07729785  0.03582201  1.0
  S2-  S33  1  0.97705798  0.06032589  0.38932698  1.0
  S2-  S33  1  0.97185757  0.05440648  0.70418655  1.0
  S2-  S33  1  0.97600282  0.39084956  0.02571489  1.0
  S2-  S33  1  0.96917666  0.39988496  0.35504057  1.0
  S2-  S33  1  0.97179685  0.40087084  0.70231958  1.0
  S2-  S33  1  0.98482641  0.71037998  0.02465500  1.0
  S2-  S33  1  0.95720989  0.74289047  0.36152912  1.0
  S2-  S33  1  0.95318384  0.72023077  0.68362408  1.0
  S2-  S34  1  0.10110676  0.00995588  0.27318286  1.0
  S2-  S34  1  0.10463993  0.00981727  0.59634274  1.0
  S2-  S34  1  0.08867988  0.99353889  0.92286339  1.0
  S2-  S34  1  0.10559322  0.33911625  0.25233221  1.0
  S2-  S34  1  0.11192023  0.35709992  0.60586935  1.0
  S2-  S34  1  0.10105313  0.34240458  0.92450669  1.0
  S2-  S34  1  0.09748124  0.68018972  0.27488387  1.0
  S2-  S34  1  0.09969077  0.65909915  0.59738316  1.0
  S2-  S34  1  0.12257511  0.67414294  0.93626601  1.0
  S2-  S34  1  0.26668757  0.01378343  0.26243420  1.0
  S2-  S34  1  0.27947844  0.00387868  0.60372148  1.0
  S2-  S34  1  0.27633583  0.02312137  0.94263006  1.0
  S2-  S34  1  0.28450071  0.34387531  0.26948805  1.0
  S2-  S34  1  0.27037705  0.33622210  0.60284035  1.0
  S2-  S34  1  0.26724679  0.34390870  0.94031119  1.0
  S2-  S34  1  0.28627455  0.67768031  0.27817803  1.0
  S2-  S34  1  0.27786760  0.67293866  0.61800433  1.0
  S2-  S34  1  0.26813954  0.67705534  0.94518551  1.0
  S2-  S34  1  0.45127588  0.00972187  0.27842974  1.0
  S2-  S34  1  0.43623216  0.00534754  0.58962565  1.0
  S2-  S34  1  0.44752311  0.01680866  0.93406282  1.0
  S2-  S34  1  0.44845440  0.36598500  0.28588118  1.0
  S2-  S34  1  0.43446200  0.35164076  0.59559301  1.0
  S2-  S34  1  0.41524587  0.34275315  0.94127940  1.0
  S2-  S34  1  0.45194994  0.67954463  0.26743908  1.0
  S2-  S34  1  0.44270473  0.67392325  0.59719518  1.0
  S2-  S34  1  0.44682243  0.67168933  0.94375000  1.0
  S2-  S34  1  0.60643691  0.02749902  0.26035724  1.0
  S2-  S34  1  0.59767235  0.00824618  0.58321143  1.0
  S2-  S34  1  0.57954289  0.99241819  0.92100797  1.0
  S2-  S34  1  0.60467211  0.34582660  0.26685256  1.0
  S2-  S34  1  0.60734889  0.33901536  0.60595444  1.0
  S2-  S34  1  0.61011873  0.34008958  0.93880872  1.0
  S2-  S34  1  0.60049826  0.66302509  0.26975884  1.0
  S2-  S34  1  0.60080528  0.68403714  0.60487219  1.0
  S2-  S34  1  0.60046148  0.65994072  0.94050633  1.0
  S2-  S34  1  0.77131878  0.01511582  0.26828821  1.0
  S2-  S34  1  0.77093636  0.01127409  0.60149298  1.0
  S2-  S34  1  0.77033055  0.00911629  0.93720188  1.0
  S2-  S34  1  0.77694208  0.34330772  0.27383508  1.0
  S2-  S34  1  0.77493172  0.36227940  0.61921028  1.0
  S2-  S34  1  0.77399951  0.32604571  0.93454309  1.0
  S2-  S34  1  0.76735992  0.66775290  0.26122445  1.0
  S2-  S34  1  0.76679337  0.68067141  0.61390387  1.0
  S2-  S34  1  0.78671330  0.70028831  0.93265830  1.0
  S2-  S34  1  0.93271117  0.00139631  0.27357399  1.0
  S2-  S34  1  0.93801738  0.01124546  0.60636980  1.0
  S2-  S34  1  0.92565985  0.00419377  0.93763279  1.0
  S2-  S34  1  0.93036551  0.32802796  0.25421087  1.0
  S2-  S34  1  0.93741229  0.34438090  0.60061308  1.0
  S2-  S34  1  0.93668807  0.35109941  0.93533226  1.0
  S2-  S34  1  0.93964647  0.67138564  0.27836197  1.0
  S2-  S34  1  0.93629818  0.67691357  0.60884405  1.0
  S2-  S34  1  0.94234739  0.67848239  0.92029109  1.0
  S2-  S35  1  0.13822171  0.28237808  0.02285492  1.0
  S2-  S35  1  0.13249549  0.27703195  0.35606068  1.0
  S2-  S35  1  0.13072787  0.27068151  0.69035683  1.0
  S2-  S35  1  0.12286713  0.62306293  0.02900102  1.0
  S2-  S35  1  0.12290951  0.61416040  0.34624210  1.0
  S2-  S35  1  0.13574147  0.63114467  0.68066252  1.0
  S2-  S35  1  0.13376778  0.96163498  0.01878287  1.0
  S2-  S35  1  0.12532588  0.95084864  0.35586051  1.0
  S2-  S35  1  0.13059266  0.95338240  0.67393821  1.0
  S2-  S35  1  0.28696967  0.27806745  0.01784575  1.0
  S2-  S35  1  0.30235454  0.27161526  0.35382929  1.0
  S2-  S35  1  0.29819429  0.27424866  0.67075489  1.0
  S2-  S35  1  0.30433838  0.62644269  0.02194847  1.0
  S2-  S35  1  0.28647952  0.59898274  0.35476260  1.0
  S2-  S35  1  0.30852875  0.61785501  0.69838555  1.0
  S2-  S35  1  0.29957329  0.94394317  0.02021832  1.0
  S2-  S35  1  0.28961351  0.93990268  0.35177073  1.0
  S2-  S35  1  0.30290030  0.93748426  0.67157334  1.0
  S2-  S35  1  0.46021356  0.27570880  0.01774919  1.0
  S2-  S35  1  0.46917152  0.29202528  0.35676073  1.0
  S2-  S35  1  0.45549922  0.26544846  0.67792159  1.0
  S2-  S35  1  0.44983930  0.60951479  0.00606154  1.0
  S2-  S35  1  0.45812039  0.60378310  0.33954636  1.0
  S2-  S35  1  0.47823883  0.62516939  0.70170179  1.0
  S2-  S35  1  0.46654155  0.95091999  0.02715355  1.0
  S2-  S35  1  0.45561967  0.95556748  0.36049680  1.0
  S2-  S35  1  0.46194854  0.96058546  0.70274121  1.0
  S2-  S35  1  0.64042558  0.28706478  0.01165315  1.0
  S2-  S35  1  0.63865025  0.27297561  0.35211584  1.0
  S2-  S35  1  0.62779784  0.25322879  0.67733861  1.0
  S2-  S35  1  0.64878831  0.59703616  0.01498421  1.0
  S2-  S35  1  0.61392376  0.60745210  0.32865403  1.0
  S2-  S35  1  0.63580293  0.62212959  0.68984911  1.0
  S2-  S35  1  0.62311253  0.94326173  0.01554077  1.0
  S2-  S35  1  0.62150880  0.93700546  0.34259890  1.0
  S2-  S35  1  0.62563646  0.95214045  0.69354220  1.0
  S2-  S35  1  0.82155083  0.28483467  0.02822773  1.0
  S2-  S35  1  0.79271539  0.27722137  0.35771729  1.0
  S2-  S35  1  0.79698055  0.28252905  0.69313372  1.0
  S2-  S35  1  0.80074222  0.62827641  0.02591566  1.0
  S2-  S35  1  0.80119352  0.60959102  0.35325447  1.0
  S2-  S35  1  0.79673837  0.61931022  0.68365680  1.0
  S2-  S35  1  0.80704033  0.94828504  0.03492683  1.0
  S2-  S35  1  0.79541333  0.94391240  0.35094104  1.0
  S2-  S35  1  0.81081755  0.95786745  0.69056242  1.0
  S2-  S35  1  0.96945477  0.28485616  0.01033754  1.0
  S2-  S35  1  0.97100688  0.27095571  0.33987973  1.0
  S2-  S35  1  0.96538341  0.27911301  0.68914057  1.0
  S2-  S35  1  0.96983036  0.61642987  0.00952067  1.0
  S2-  S35  1  0.96583937  0.61477133  0.35207856  1.0
  S2-  S35  1  0.96353514  0.61977468  0.68189447  1.0
  S2-  S35  1  0.97138285  0.95548416  0.01625152  1.0
  S2-  S35  1  0.96057164  0.95270405  0.34007215  1.0
  S2-  S35  1  0.97502151  0.94865667  0.68501993  1.0
  S2-  S36  1  0.02114960  0.06540438  0.23024846  1.0
  S2-  S36  1  0.02091831  0.05534824  0.56608806  1.0
  S2-  S36  1  0.00771725  0.06563653  0.89127174  1.0
  S2-  S36  1  0.00512741  0.39676090  0.22566657  1.0
  S2-  S36  1  0.99706241  0.37614750  0.55005351  1.0
  S2-  S36  1  0.02963808  0.39732071  0.89310889  1.0
  S2-  S36  1  0.02669921  0.73575201  0.24260275  1.0
  S2-  S36  1  0.02333665  0.73556659  0.57084629  1.0
  S2-  S36  1  0.00714889  0.71362372  0.88402489  1.0
  S2-  S36  1  0.19022058  0.05788220  0.22734773  1.0
  S2-  S36  1  0.17090927  0.05640311  0.55689452  1.0
  S2-  S36  1  0.18493032  0.05720692  0.88957869  1.0
  S2-  S36  1  0.18986642  0.39735768  0.23379347  1.0
  S2-  S36  1  0.19341772  0.39013662  0.56185080  1.0
  S2-  S36  1  0.18434787  0.38694993  0.89434850  1.0
  S2-  S36  1  0.18940369  0.75201513  0.23731875  1.0
  S2-  S36  1  0.19378956  0.73507994  0.55667211  1.0
  S2-  S36  1  0.16979342  0.73001050  0.90204319  1.0
  S2-  S36  1  0.35128863  0.06188140  0.22616967  1.0
  S2-  S36  1  0.33520084  0.05284249  0.54255556  1.0
  S2-  S36  1  0.33816229  0.05662123  0.89662239  1.0
  S2-  S36  1  0.34565512  0.39675205  0.22864922  1.0
  S2-  S36  1  0.35015844  0.38552973  0.56694451  1.0
  S2-  S36  1  0.33583738  0.39063459  0.89000558  1.0
  S2-  S36  1  0.35858174  0.73985750  0.23952636  1.0
  S2-  S36  1  0.35831071  0.72065140  0.57038077  1.0
  S2-  S36  1  0.35094994  0.70702312  0.88681724  1.0
  S2-  S36  1  0.51902643  0.05671337  0.21854146  1.0
  S2-  S36  1  0.53321573  0.06216133  0.56641325  1.0
  S2-  S36  1  0.50289375  0.05587027  0.88274675  1.0
  S2-  S36  1  0.52563230  0.39891755  0.22677467  1.0
  S2-  S36  1  0.51935964  0.39232426  0.56305108  1.0
  S2-  S36  1  0.51835642  0.39818386  0.89842308  1.0
  S2-  S36  1  0.52211045  0.73878347  0.23748083  1.0
  S2-  S36  1  0.51230479  0.72701049  0.56969804  1.0
  S2-  S36  1  0.51532377  0.72460968  0.88831660  1.0
  S2-  S36  1  0.68207968  0.05376140  0.23553664  1.0
  S2-  S36  1  0.67722899  0.07404969  0.56144458  1.0
  S2-  S36  1  0.67356685  0.06284083  0.88531484  1.0
  S2-  S36  1  0.68081460  0.38950639  0.23328839  1.0
  S2-  S36  1  0.68008280  0.38419320  0.55269537  1.0
  S2-  S36  1  0.69121748  0.40572220  0.89937573  1.0
  S2-  S36  1  0.67607593  0.73702876  0.23452205  1.0
  S2-  S36  1  0.69363469  0.73038614  0.56024977  1.0
  S2-  S36  1  0.68716589  0.73070026  0.89176833  1.0
  S2-  S36  1  0.84983726  0.05949962  0.23323318  1.0
  S2-  S36  1  0.85005646  0.05205050  0.54942628  1.0
  S2-  S36  1  0.84803031  0.06148108  0.90021705  1.0
  S2-  S36  1  0.85673599  0.40721446  0.22956376  1.0
  S2-  S36  1  0.84184834  0.38618197  0.56279338  1.0
  S2-  S36  1  0.84407092  0.37840913  0.88999044  1.0
  S2-  S36  1  0.85052809  0.72660702  0.22999700  1.0
  S2-  S36  1  0.84280182  0.74213357  0.56686967  1.0
  S2-  S36  1  0.83393614  0.72781105  0.89409517  1.0
  S2-  S37  1  0.13469066  0.11034538  0.31705379  1.0
  S2-  S37  1  0.13831214  0.10943059  0.63932443  1.0
  S2-  S37  1  0.15032233  0.10475812  0.96394469  1.0
  S2-  S37  1  0.14746233  0.43027835  0.31697490  1.0
  S2-  S37  1  0.14566623  0.43382973  0.64543513  1.0
  S2-  S37  1  0.14190745  0.43711255  0.96477032  1.0
  S2-  S37  1  0.12851440  0.77762744  0.28971367  1.0
  S2-  S37  1  0.13708592  0.77613557  0.63345856  1.0
  S2-  S37  1  0.14071942  0.76181643  0.96453810  1.0
  S2-  S37  1  0.30811715  0.09743018  0.31477760  1.0
  S2-  S37  1  0.30749732  0.11769207  0.63940387  1.0
  S2-  S37  1  0.29324426  0.09581760  0.96564033  1.0
  S2-  S37  1  0.32239121  0.45442887  0.31283401  1.0
  S2-  S37  1  0.30016194  0.44145985  0.96300741  1.0
  S2-  S37  1  0.31004453  0.76418380  0.61878329  1.0
  S2-  S37  1  0.31958117  0.77040230  0.97304088  1.0
  S2-  S37  1  0.48904062  0.12204406  0.31778422  1.0
  S2-  S37  1  0.47794567  0.10973004  0.63688397  1.0
  S2-  S37  1  0.47656604  0.10696447  0.96519267  1.0
  S2-  S37  1  0.47701756  0.44223050  0.30949457  1.0
  S2-  S37  1  0.47605646  0.42739316  0.97711973  1.0
  S2-  S37  1  0.48516773  0.77153518  0.30966857  1.0
  S2-  S37  1  0.47603885  0.77891074  0.63310100  1.0
  S2-  S37  1  0.65553277  0.11181142  0.64805666  1.0
  S2-  S37  1  0.63802510  0.09341982  0.97312804  1.0
  S2-  S37  1  0.63341344  0.44682983  0.29834845  1.0
  S2-  S37  1  0.62937082  0.43904669  0.64385238  1.0
  S2-  S37  1  0.63867481  0.45294401  0.97932438  1.0
  S2-  S37  1  0.64273165  0.76858293  0.63355329  1.0
  S2-  S37  1  0.64832378  0.77972893  0.96970721  1.0
  S2-  S37  1  0.80196761  0.10384512  0.31298060  1.0
  S2-  S37  1  0.80207054  0.11564023  0.63920532  1.0
  S2-  S37  1  0.79429318  0.10169008  0.97105968  1.0
  S2-  S37  1  0.82075952  0.42749450  0.28114058  1.0
  S2-  S37  1  0.80126921  0.44886866  0.62450300  1.0
  S2-  S37  1  0.82481367  0.78293592  0.97910601  1.0
  S2-  S37  1  0.97082843  0.10618524  0.30800850  1.0
  S2-  S37  1  0.98420717  0.12083362  0.64191462  1.0
  S2-  S37  1  0.96125337  0.09285749  0.95043705  1.0
  S2-  S37  1  0.97691473  0.43699981  0.63741657  1.0
  S2-  S37  1  0.96855172  0.42938343  0.97114572  1.0
  S2-  S37  1  0.95334505  0.76540025  0.30316041  1.0
  S2-  S38  1  0.12623120  0.16937987  0.22821351  1.0
  S2-  S38  1  0.13040398  0.17097346  0.55921040  1.0
  S2-  S38  1  0.13901556  0.16637301  0.91313484  1.0
  S2-  S38  1  0.13166246  0.49000621  0.24560238  1.0
  S2-  S38  1  0.12392094  0.49733154  0.57327630  1.0
  S2-  S38  1  0.12080921  0.51182709  0.89360084  1.0
  S2-  S38  1  0.12966999  0.83515239  0.23471840  1.0
  S2-  S38  1  0.13511474  0.81871890  0.57044763  1.0
  S2-  S38  1  0.14207763  0.84159100  0.89393780  1.0
  S2-  S38  1  0.28627526  0.16299620  0.22036352  1.0
  S2-  S38  1  0.28337937  0.16262148  0.56550692  1.0
  S2-  S38  1  0.32405174  0.17074522  0.92256041  1.0
  S2-  S38  1  0.30045223  0.50417327  0.23554105  1.0
  S2-  S38  1  0.31989172  0.49334476  0.56689541  1.0
  S2-  S38  1  0.30652672  0.50111129  0.90048757  1.0
  S2-  S38  1  0.30724425  0.83228250  0.23630451  1.0
  S2-  S38  1  0.29679390  0.81755955  0.55064706  1.0
  S2-  S38  1  0.30664869  0.82675313  0.90051085  1.0
  S2-  S38  1  0.47920883  0.16520953  0.23611798  1.0
  S2-  S38  1  0.47193342  0.16077085  0.57760715  1.0
  S2-  S38  1  0.47805386  0.18189117  0.90372450  1.0
  S2-  S38  1  0.47883182  0.50412566  0.22890261  1.0
  S2-  S38  1  0.44239373  0.49236696  0.56314116  1.0
  S2-  S38  1  0.46951785  0.49879320  0.90190379  1.0
  S2-  S38  1  0.46766050  0.84160832  0.22671266  1.0
  S2-  S38  1  0.46613472  0.82548527  0.55905036  1.0
  S2-  S38  1  0.47326434  0.82408938  0.89964995  1.0
  S2-  S38  1  0.65114995  0.17326201  0.23780342  1.0
  S2-  S38  1  0.62642950  0.15530129  0.57395535  1.0
  S2-  S38  1  0.64288635  0.17194471  0.91206206  1.0
  S2-  S38  1  0.62225668  0.48584557  0.23299211  1.0
  S2-  S38  1  0.64425016  0.51328269  0.57356435  1.0
  S2-  S38  1  0.62920157  0.49722627  0.90552472  1.0
  S2-  S38  1  0.63022339  0.83218604  0.24084375  1.0
  S2-  S38  1  0.63110561  0.84473851  0.57657458  1.0
  S2-  S38  1  0.61593036  0.82815855  0.88050240  1.0
  S2-  S38  1  0.79644436  0.16164010  0.23961047  1.0
  S2-  S38  1  0.79305238  0.16934561  0.57237517  1.0
  S2-  S38  1  0.80446041  0.17588876  0.92210986  1.0
  S2-  S38  1  0.80134952  0.50283065  0.22955161  1.0
  S2-  S38  1  0.79357496  0.50829770  0.57680184  1.0
  S2-  S38  1  0.78742428  0.48793006  0.89039763  1.0
  S2-  S38  1  0.79713496  0.82908236  0.23467969  1.0
  S2-  S38  1  0.80818790  0.83665903  0.57577464  1.0
  S2-  S38  1  0.77481567  0.81860502  0.88555046  1.0
  S2-  S38  1  0.96296463  0.17327723  0.22953784  1.0
  S2-  S38  1  0.96954510  0.15914599  0.55760633  1.0
  S2-  S38  1  0.96229207  0.18561269  0.90030774  1.0
  S2-  S38  1  0.96774245  0.48575612  0.24251998  1.0
  S2-  S38  1  0.96964673  0.50168966  0.57312797  1.0
  S2-  S38  1  0.97248679  0.50634306  0.90051164  1.0
  S2-  S38  1  0.96069898  0.83306841  0.23929686  1.0
  S2-  S38  1  0.96748709  0.83937057  0.57554494  1.0
  S2-  S38  1  0.95970727  0.81744598  0.89168608  1.0
  S2-  S39  1  0.08694449  0.22583466  0.23031192  1.0
  S2-  S39  1  0.07541595  0.22876177  0.56188676  1.0
  S2-  S39  1  0.08313081  0.22718817  0.89287837  1.0
  S2-  S39  1  0.07763591  0.55264846  0.22986283  1.0
  S2-  S39  1  0.06477268  0.56170204  0.56320118  1.0
  S2-  S39  1  0.07575215  0.55141905  0.89189328  1.0
  S2-  S39  1  0.06640280  0.89298810  0.22543428  1.0
  S2-  S39  1  0.06854929  0.88503550  0.56571925  1.0
  S2-  S39  1  0.05779891  0.89169232  0.90877383  1.0
  S2-  S39  1  0.24692142  0.21751461  0.23523943  1.0
  S2-  S39  1  0.24455094  0.23565591  0.54975158  1.0
  S2-  S39  1  0.24680230  0.22055086  0.89302040  1.0
  S2-  S39  1  0.22846557  0.54490603  0.22048808  1.0
  S2-  S39  1  0.22974058  0.55777793  0.56746735  1.0
  S2-  S39  1  0.23999942  0.56925301  0.89760131  1.0
  S2-  S39  1  0.23445496  0.88543107  0.23358111  1.0
  S2-  S39  1  0.24534379  0.89385196  0.56622460  1.0
  S2-  S39  1  0.22627817  0.88676598  0.90571600  1.0
  S2-  S39  1  0.41409567  0.22543454  0.23079012  1.0
  S2-  S39  1  0.40381597  0.21957263  0.57246355  1.0
  S2-  S39  1  0.40033394  0.23091003  0.89480405  1.0
  S2-  S39  1  0.41699651  0.55992212  0.22891998  1.0
  S2-  S39  1  0.40418638  0.56239945  0.56203764  1.0
  S2-  S39  1  0.40376875  0.55174985  0.90990664  1.0
  S2-  S39  1  0.42475162  0.90226806  0.23832467  1.0
  S2-  S39  1  0.39954812  0.88276800  0.57315151  1.0
  S2-  S39  1  0.41518359  0.89805580  0.90054981  1.0
  S2-  S39  1  0.55301326  0.20958944  0.22318420  1.0
  S2-  S39  1  0.56558462  0.21733156  0.56398110  1.0
  S2-  S39  1  0.57818771  0.21677911  0.88700789  1.0
  S2-  S39  1  0.56324582  0.54713183  0.23100924  1.0
  S2-  S39  1  0.57641718  0.57256435  0.57608980  1.0
  S2-  S39  1  0.58301759  0.54400186  0.87091891  1.0
  S2-  S39  1  0.57391873  0.89061559  0.23084382  1.0
  S2-  S39  1  0.56946464  0.87976890  0.56532347  1.0
  S2-  S39  1  0.57459048  0.87911038  0.89239851  1.0
  S2-  S39  1  0.73408366  0.21704362  0.21909548  1.0
  S2-  S39  1  0.73902634  0.22514543  0.56033260  1.0
  S2-  S39  1  0.73024537  0.22644775  0.89080614  1.0
  S2-  S39  1  0.73454760  0.55241832  0.23880428  1.0
  S2-  S39  1  0.73672116  0.57121671  0.57436915  1.0
  S2-  S39  1  0.75510100  0.56199070  0.90146686  1.0
  S2-  S39  1  0.72970245  0.88645316  0.23981154  1.0
  S2-  S39  1  0.73956046  0.89529169  0.56794440  1.0
  S2-  S39  1  0.74106807  0.89204998  0.90292781  1.0
  S2-  S39  1  0.89743579  0.22048663  0.23097026  1.0
  S2-  S39  1  0.90507746  0.21886647  0.56641413  1.0
  S2-  S39  1  0.89533693  0.21224146  0.89457527  1.0
  S2-  S39  1  0.89567911  0.55864677  0.21414861  1.0
  S2-  S39  1  0.89803997  0.55336189  0.54918656  1.0
  S2-  S39  1  0.90488606  0.56651619  0.89067843  1.0
  S2-  S39  1  0.90645376  0.90435106  0.22736292  1.0
  S2-  S39  1  0.91580234  0.88711763  0.56685996  1.0
  S2-  S39  1  0.91438973  0.88532534  0.90350854  1.0
  S2-  S40  1  0.03438439  0.26878786  0.29324484  1.0
  S2-  S40  1  0.02630792  0.27273171  0.62340487  1.0
  S2-  S40  1  0.01440628  0.24429772  0.95137840  1.0
  S2-  S40  1  0.03183432  0.59328663  0.29237021  1.0
  S2-  S40  1  0.04895730  0.60758481  0.64826336  1.0
  S2-  S40  1  0.02147196  0.61168415  0.95649862  1.0
  S2-  S40  1  0.03423360  0.94843895  0.30787919  1.0
  S2-  S40  1  0.02656442  0.94350529  0.63545151  1.0
  S2-  S40  1  0.03393291  0.94003799  0.97453583  1.0
  S2-  S40  1  0.20648434  0.27168333  0.30172980  1.0
  S2-  S40  1  0.18874747  0.27740672  0.63508576  1.0
  S2-  S40  1  0.19621295  0.27560778  0.98201857  1.0
  S2-  S40  1  0.17010899  0.60346182  0.28986039  1.0
  S2-  S40  1  0.20872428  0.61191435  0.64121709  1.0
  S2-  S40  1  0.20538933  0.60621601  0.97328576  1.0
  S2-  S40  1  0.18824614  0.93195425  0.30943180  1.0
  S2-  S40  1  0.20012224  0.94672064  0.62722304  1.0
  S2-  S40  1  0.20423304  0.95657874  0.97078236  1.0
  S2-  S40  1  0.35209246  0.27604762  0.28967616  1.0
  S2-  S40  1  0.34720283  0.26805777  0.62378561  1.0
  S2-  S40  1  0.35728370  0.28598329  0.98358958  1.0
  S2-  S40  1  0.36818397  0.61112216  0.30093340  1.0
  S2-  S40  1  0.35875536  0.62172071  0.63590642  1.0
  S2-  S40  1  0.36083646  0.61660583  0.96810022  1.0
  S2-  S40  1  0.36911253  0.93755095  0.30822975  1.0
  S2-  S40  1  0.37362627  0.95263571  0.63348411  1.0
  S2-  S40  1  0.36640751  0.95805312  0.97044050  1.0
  S2-  S40  1  0.54139223  0.29436757  0.29392414  1.0
  S2-  S40  1  0.52640044  0.27446393  0.61826383  1.0
  S2-  S40  1  0.52241327  0.26600005  0.96911307  1.0
  S2-  S40  1  0.51921378  0.62421150  0.30783756  1.0
  S2-  S40  1  0.52261990  0.61670726  0.63897084  1.0
  S2-  S40  1  0.52652782  0.60150685  0.96825912  1.0
  S2-  S40  1  0.52795497  0.93512035  0.28708228  1.0
  S2-  S40  1  0.52034632  0.93673740  0.63893036  1.0
  S2-  S40  1  0.53470629  0.93720032  0.96327140  1.0
  S2-  S40  1  0.70431662  0.27677265  0.30439037  1.0
  S2-  S40  1  0.68922043  0.27337435  0.63128531  1.0
  S2-  S40  1  0.69652916  0.28083149  0.97452930  1.0
  S2-  S40  1  0.68645280  0.60343088  0.29088013  1.0
  S2-  S40  1  0.71276215  0.62737849  0.63916934  1.0
  S2-  S40  1  0.69617877  0.61510619  0.96311133  1.0
  S2-  S40  1  0.70251923  0.94093284  0.28746970  1.0
  S2-  S40  1  0.68370313  0.93817618  0.63908061  1.0
  S2-  S40  1  0.68658461  0.93646953  0.96457853  1.0
  S2-  S40  1  0.84895733  0.27704404  0.28524966  1.0
  S2-  S40  1  0.86467070  0.26741413  0.62404435  1.0
  S2-  S40  1  0.86637596  0.28135261  0.97234292  1.0
  S2-  S40  1  0.86435233  0.60970990  0.30377133  1.0
  S2-  S40  1  0.86475422  0.60435213  0.63774047  1.0
  S2-  S40  1  0.85824595  0.61727231  0.97446150  1.0
  S2-  S40  1  0.88150751  0.94558302  0.31261461  1.0
  S2-  S40  1  0.85152272  0.94930380  0.64230874  1.0
  S2-  S40  1  0.87486914  0.94216197  0.96686661  1.0
  S2-  S41  1  0.01246969  0.21894924  0.35700106  1.0
  S2-  S41  1  0.00756411  0.22094785  0.69071838  1.0
  S2-  S41  1  0.02215674  0.55253166  0.01642538  1.0
  S2-  S41  1  0.01452445  0.55904136  0.70983561  1.0
  S2-  S41  1  0.03347608  0.89615808  0.03620400  1.0
  S2-  S41  1  0.03430174  0.90017085  0.69745829  1.0
  S2-  S41  1  0.18342427  0.22653922  0.03504744  1.0
  S2-  S41  1  0.18566741  0.21802185  0.34482104  1.0
  S2-  S41  1  0.18711339  0.21870917  0.68884588  1.0
  S2-  S41  1  0.20273847  0.56049370  0.35914135  1.0
  S2-  S41  1  0.19831784  0.57766759  0.70157331  1.0
  S2-  S41  1  0.17288443  0.89994873  0.02946307  1.0
  S2-  S41  1  0.19095721  0.89238926  0.35556626  1.0
  S2-  S41  1  0.19860423  0.87830847  0.69036666  1.0
  S2-  S41  1  0.35689150  0.23505063  0.04097789  1.0
  S2-  S41  1  0.35605826  0.22930679  0.36484435  1.0
  S2-  S41  1  0.36887144  0.23660981  0.69685448  1.0
  S2-  S41  1  0.36207459  0.56429495  0.03027524  1.0
  S2-  S41  1  0.36060126  0.56113756  0.36448667  1.0
  S2-  S41  1  0.34379578  0.55297895  0.69673818  1.0
  S2-  S41  1  0.34859988  0.89838364  0.02768948  1.0
  S2-  S41  1  0.53435518  0.56660430  0.36292268  1.0
  S2-  S41  1  0.51711077  0.54369476  0.68799892  1.0
  S2-  S41  1  0.51298729  0.89239335  0.02098348  1.0
  S2-  S41  1  0.51990079  0.90462438  0.35452396  1.0
  S2-  S41  1  0.51429720  0.88822334  0.68793890  1.0
  S2-  S41  1  0.68255924  0.22450533  0.02870064  1.0
  S2-  S41  1  0.69795225  0.23303187  0.35066818  1.0
  S2-  S41  1  0.69508028  0.56480497  0.35937408  1.0
  S2-  S41  1  0.70745268  0.57042089  0.70100287  1.0
  S2-  S41  1  0.69010108  0.90865713  0.03312678  1.0
  S2-  S41  1  0.69167039  0.89492545  0.71436512  1.0
  S2-  S41  1  0.85558208  0.22742306  0.35542028  1.0
  S2-  S41  1  0.85153406  0.21865916  0.68536402  1.0
  S2-  S41  1  0.84468461  0.56862818  0.02974379  1.0
  S2-  S41  1  0.85929394  0.56050597  0.36331881  1.0
  S2-  S41  1  0.86890705  0.88760970  0.03195093  1.0
  S2-  S41  1  0.86266952  0.90422665  0.70342923  1.0
