# generated using pymatgen
data_Li47P16N5O56
_symmetry_space_group_name_H-M   'P 1'
_cell_length_a   19.68979200
_cell_length_b   21.18560800
_cell_length_c   24.70454400
_cell_angle_alpha   90.00000000
_cell_angle_beta   90.00000000
_cell_angle_gamma   90.00000000
_symmetry_Int_Tables_number   1
_chemical_formula_structural   Li47P16N5O56
_chemical_formula_sum   'Li376 P128 N40 O448'
_cell_volume   10305.25879350
_cell_formula_units_Z   8
loop_
 _symmetry_equiv_pos_site_id
 _symmetry_equiv_pos_as_xyz
  1  'x, y, z'
loop_
 _atom_site_type_symbol
 _atom_site_label
 _atom_site_symmetry_multiplicity
 _atom_site_fract_x
 _atom_site_fract_y
 _atom_site_fract_z
 _atom_site_occupancy
  Li  Li1  1  0.12735425  0.21113000  0.00000000  1.0
  Li  Li1  1  0.12735425  0.21113000  0.50000000  1.0
  Li  Li1  1  0.12735425  0.71113000  0.00000000  1.0
  Li  Li1  1  0.12735425  0.71113000  0.50000000  1.0
  Li  Li1  1  0.62735425  0.21113000  0.00000000  1.0
  Li  Li1  1  0.62735425  0.21113000  0.50000000  1.0
  Li  Li1  1  0.62735425  0.71113000  0.00000000  1.0
  Li  Li1  1  0.62735425  0.71113000  0.50000000  1.0
  Li  Li2  1  0.00235425  0.03887000  0.12500000  1.0
  Li  Li2  1  0.00235425  0.03887000  0.62500000  1.0
  Li  Li2  1  0.00235425  0.53887000  0.12500000  1.0
  Li  Li2  1  0.00235425  0.53887000  0.62500000  1.0
  Li  Li2  1  0.50235425  0.03887000  0.12500000  1.0
  Li  Li2  1  0.50235425  0.03887000  0.62500000  1.0
  Li  Li2  1  0.50235425  0.53887000  0.12500000  1.0
  Li  Li2  1  0.50235425  0.53887000  0.62500000  1.0
  Li  Li3  1  0.12709075  0.08160850  0.18678175  1.0
  Li  Li3  1  0.12709075  0.08160850  0.68678175  1.0
  Li  Li3  1  0.12709075  0.58160850  0.18678175  1.0
  Li  Li3  1  0.12709075  0.58160850  0.68678175  1.0
  Li  Li3  1  0.62709075  0.08160850  0.18678175  1.0
  Li  Li3  1  0.62709075  0.08160850  0.68678175  1.0
  Li  Li3  1  0.62709075  0.58160850  0.18678175  1.0
  Li  Li3  1  0.62709075  0.58160850  0.68678175  1.0
  Li  Li4  1  0.00209075  0.16839150  0.18821825  1.0
  Li  Li4  1  0.00209075  0.16839150  0.68821825  1.0
  Li  Li4  1  0.00209075  0.66839150  0.18821825  1.0
  Li  Li4  1  0.00209075  0.66839150  0.68821825  1.0
  Li  Li4  1  0.50209075  0.16839150  0.18821825  1.0
  Li  Li4  1  0.50209075  0.16839150  0.68821825  1.0
  Li  Li4  1  0.50209075  0.66839150  0.18821825  1.0
  Li  Li4  1  0.50209075  0.66839150  0.68821825  1.0
  Li  Li5  1  0.00209075  0.16839150  0.06178175  1.0
  Li  Li5  1  0.00209075  0.16839150  0.56178175  1.0
  Li  Li5  1  0.00209075  0.66839150  0.06178175  1.0
  Li  Li5  1  0.00209075  0.66839150  0.56178175  1.0
  Li  Li5  1  0.50209075  0.16839150  0.06178175  1.0
  Li  Li5  1  0.50209075  0.16839150  0.56178175  1.0
  Li  Li5  1  0.50209075  0.66839150  0.06178175  1.0
  Li  Li5  1  0.50209075  0.66839150  0.56178175  1.0
  Li  Li6  1  0.12709075  0.08160850  0.06321825  1.0
  Li  Li6  1  0.12709075  0.08160850  0.56321825  1.0
  Li  Li6  1  0.12709075  0.58160850  0.06321825  1.0
  Li  Li6  1  0.12709075  0.58160850  0.56321825  1.0
  Li  Li6  1  0.62709075  0.08160850  0.06321825  1.0
  Li  Li6  1  0.62709075  0.08160850  0.56321825  1.0
  Li  Li6  1  0.62709075  0.58160850  0.06321825  1.0
  Li  Li6  1  0.62709075  0.58160850  0.56321825  1.0
  Li  Li7  1  0.12735425  0.21113000  0.25000000  1.0
  Li  Li7  1  0.12735425  0.21113000  0.75000000  1.0
  Li  Li7  1  0.12735425  0.71113000  0.25000000  1.0
  Li  Li7  1  0.12735425  0.71113000  0.75000000  1.0
  Li  Li7  1  0.62735425  0.21113000  0.25000000  1.0
  Li  Li7  1  0.62735425  0.21113000  0.75000000  1.0
  Li  Li7  1  0.62735425  0.71113000  0.25000000  1.0
  Li  Li7  1  0.62735425  0.71113000  0.75000000  1.0
  Li  Li8  1  0.00235425  0.03887000  0.37500000  1.0
  Li  Li8  1  0.00235425  0.03887000  0.87500000  1.0
  Li  Li8  1  0.00235425  0.53887000  0.37500000  1.0
  Li  Li8  1  0.00235425  0.53887000  0.87500000  1.0
  Li  Li8  1  0.50235425  0.03887000  0.37500000  1.0
  Li  Li8  1  0.50235425  0.03887000  0.87500000  1.0
  Li  Li8  1  0.50235425  0.53887000  0.37500000  1.0
  Li  Li8  1  0.50235425  0.53887000  0.87500000  1.0
  Li  Li9  1  0.12709075  0.08160850  0.43678175  1.0
  Li  Li9  1  0.12709075  0.08160850  0.93678175  1.0
  Li  Li9  1  0.12709075  0.58160850  0.43678175  1.0
  Li  Li9  1  0.12709075  0.58160850  0.93678175  1.0
  Li  Li9  1  0.62709075  0.08160850  0.43678175  1.0
  Li  Li9  1  0.62709075  0.08160850  0.93678175  1.0
  Li  Li9  1  0.62709075  0.58160850  0.43678175  1.0
  Li  Li9  1  0.62709075  0.58160850  0.93678175  1.0
  Li  Li10  1  0.00209075  0.16839150  0.43821825  1.0
  Li  Li10  1  0.00209075  0.16839150  0.93821825  1.0
  Li  Li10  1  0.00209075  0.66839150  0.43821825  1.0
  Li  Li10  1  0.00209075  0.66839150  0.93821825  1.0
  Li  Li10  1  0.50209075  0.16839150  0.43821825  1.0
  Li  Li10  1  0.50209075  0.16839150  0.93821825  1.0
  Li  Li10  1  0.50209075  0.66839150  0.43821825  1.0
  Li  Li10  1  0.50209075  0.66839150  0.93821825  1.0
  Li  Li11  1  0.00209075  0.16839150  0.31178175  1.0
  Li  Li11  1  0.00209075  0.16839150  0.81178175  1.0
  Li  Li11  1  0.00209075  0.66839150  0.31178175  1.0
  Li  Li11  1  0.00209075  0.66839150  0.81178175  1.0
  Li  Li11  1  0.50209075  0.16839150  0.31178175  1.0
  Li  Li11  1  0.50209075  0.16839150  0.81178175  1.0
  Li  Li11  1  0.50209075  0.66839150  0.31178175  1.0
  Li  Li11  1  0.50209075  0.66839150  0.81178175  1.0
  Li  Li12  1  0.12709075  0.08160850  0.31321825  1.0
  Li  Li12  1  0.12709075  0.08160850  0.81321825  1.0
  Li  Li12  1  0.12709075  0.58160850  0.31321825  1.0
  Li  Li12  1  0.12709075  0.58160850  0.81321825  1.0
  Li  Li12  1  0.62709075  0.08160850  0.31321825  1.0
  Li  Li12  1  0.62709075  0.08160850  0.81321825  1.0
  Li  Li12  1  0.62709075  0.58160850  0.31321825  1.0
  Li  Li12  1  0.62709075  0.58160850  0.81321825  1.0
  Li  Li13  1  0.12735425  0.46113000  0.00000000  1.0
  Li  Li13  1  0.12735425  0.46113000  0.50000000  1.0
  Li  Li13  1  0.12735425  0.96113000  0.00000000  1.0
  Li  Li13  1  0.12735425  0.96113000  0.50000000  1.0
  Li  Li13  1  0.62735425  0.46113000  0.00000000  1.0
  Li  Li13  1  0.62735425  0.46113000  0.50000000  1.0
  Li  Li13  1  0.62735425  0.96113000  0.00000000  1.0
  Li  Li13  1  0.62735425  0.96113000  0.50000000  1.0
  Li  Li14  1  0.00235425  0.28887000  0.12500000  1.0
  Li  Li14  1  0.00235425  0.28887000  0.62500000  1.0
  Li  Li14  1  0.00235425  0.78887000  0.12500000  1.0
  Li  Li14  1  0.00235425  0.78887000  0.62500000  1.0
  Li  Li14  1  0.50235425  0.28887000  0.12500000  1.0
  Li  Li14  1  0.50235425  0.28887000  0.62500000  1.0
  Li  Li14  1  0.50235425  0.78887000  0.12500000  1.0
  Li  Li14  1  0.50235425  0.78887000  0.62500000  1.0
  Li  Li15  1  0.12709075  0.33160850  0.18678175  1.0
  Li  Li15  1  0.12709075  0.33160850  0.68678175  1.0
  Li  Li15  1  0.12709075  0.83160850  0.18678175  1.0
  Li  Li15  1  0.12709075  0.83160850  0.68678175  1.0
  Li  Li15  1  0.62709075  0.33160850  0.18678175  1.0
  Li  Li15  1  0.62709075  0.33160850  0.68678175  1.0
  Li  Li15  1  0.62709075  0.83160850  0.18678175  1.0
  Li  Li15  1  0.62709075  0.83160850  0.68678175  1.0
  Li  Li16  1  0.00209075  0.41839150  0.18821825  1.0
  Li  Li16  1  0.00209075  0.41839150  0.68821825  1.0
  Li  Li16  1  0.00209075  0.91839150  0.18821825  1.0
  Li  Li16  1  0.00209075  0.91839150  0.68821825  1.0
  Li  Li16  1  0.50209075  0.41839150  0.18821825  1.0
  Li  Li16  1  0.50209075  0.41839150  0.68821825  1.0
  Li  Li16  1  0.50209075  0.91839150  0.18821825  1.0
  Li  Li16  1  0.50209075  0.91839150  0.68821825  1.0
  Li  Li17  1  0.00209075  0.41839150  0.06178175  1.0
  Li  Li17  1  0.00209075  0.41839150  0.56178175  1.0
  Li  Li17  1  0.00209075  0.91839150  0.06178175  1.0
  Li  Li17  1  0.00209075  0.91839150  0.56178175  1.0
  Li  Li17  1  0.50209075  0.41839150  0.06178175  1.0
  Li  Li17  1  0.50209075  0.41839150  0.56178175  1.0
  Li  Li17  1  0.50209075  0.91839150  0.06178175  1.0
  Li  Li17  1  0.50209075  0.91839150  0.56178175  1.0
  Li  Li18  1  0.12709075  0.33160850  0.06321825  1.0
  Li  Li18  1  0.12709075  0.33160850  0.56321825  1.0
  Li  Li18  1  0.12709075  0.83160850  0.06321825  1.0
  Li  Li18  1  0.12709075  0.83160850  0.56321825  1.0
  Li  Li18  1  0.62709075  0.33160850  0.06321825  1.0
  Li  Li18  1  0.62709075  0.33160850  0.56321825  1.0
  Li  Li18  1  0.62709075  0.83160850  0.06321825  1.0
  Li  Li18  1  0.62709075  0.83160850  0.56321825  1.0
  Li  Li19  1  0.12735425  0.46113000  0.25000000  1.0
  Li  Li19  1  0.12735425  0.46113000  0.75000000  1.0
  Li  Li19  1  0.12735425  0.96113000  0.25000000  1.0
  Li  Li19  1  0.12735425  0.96113000  0.75000000  1.0
  Li  Li19  1  0.62735425  0.46113000  0.25000000  1.0
  Li  Li19  1  0.62735425  0.46113000  0.75000000  1.0
  Li  Li19  1  0.62735425  0.96113000  0.25000000  1.0
  Li  Li19  1  0.62735425  0.96113000  0.75000000  1.0
  Li  Li20  1  0.00235425  0.28887000  0.37500000  1.0
  Li  Li20  1  0.00235425  0.28887000  0.87500000  1.0
  Li  Li20  1  0.00235425  0.78887000  0.37500000  1.0
  Li  Li20  1  0.00235425  0.78887000  0.87500000  1.0
  Li  Li20  1  0.50235425  0.28887000  0.37500000  1.0
  Li  Li20  1  0.50235425  0.28887000  0.87500000  1.0
  Li  Li20  1  0.50235425  0.78887000  0.37500000  1.0
  Li  Li20  1  0.50235425  0.78887000  0.87500000  1.0
  Li  Li21  1  0.12709075  0.33160850  0.43678175  1.0
  Li  Li21  1  0.12709075  0.33160850  0.93678175  1.0
  Li  Li21  1  0.12709075  0.83160850  0.43678175  1.0
  Li  Li21  1  0.12709075  0.83160850  0.93678175  1.0
  Li  Li21  1  0.62709075  0.33160850  0.43678175  1.0
  Li  Li21  1  0.62709075  0.33160850  0.93678175  1.0
  Li  Li21  1  0.62709075  0.83160850  0.43678175  1.0
  Li  Li21  1  0.62709075  0.83160850  0.93678175  1.0
  Li  Li22  1  0.00209075  0.41839150  0.43821825  1.0
  Li  Li22  1  0.00209075  0.41839150  0.93821825  1.0
  Li  Li22  1  0.00209075  0.91839150  0.43821825  1.0
  Li  Li22  1  0.00209075  0.91839150  0.93821825  1.0
  Li  Li22  1  0.50209075  0.41839150  0.43821825  1.0
  Li  Li22  1  0.50209075  0.41839150  0.93821825  1.0
  Li  Li22  1  0.50209075  0.91839150  0.43821825  1.0
  Li  Li22  1  0.50209075  0.91839150  0.93821825  1.0
  Li  Li23  1  0.00209075  0.41839150  0.31178175  1.0
  Li  Li23  1  0.00209075  0.41839150  0.81178175  1.0
  Li  Li23  1  0.00209075  0.91839150  0.31178175  1.0
  Li  Li23  1  0.00209075  0.91839150  0.81178175  1.0
  Li  Li23  1  0.50209075  0.41839150  0.31178175  1.0
  Li  Li23  1  0.50209075  0.41839150  0.81178175  1.0
  Li  Li23  1  0.50209075  0.91839150  0.31178175  1.0
  Li  Li23  1  0.50209075  0.91839150  0.81178175  1.0
  Li  Li24  1  0.12709075  0.33160850  0.31321825  1.0
  Li  Li24  1  0.12709075  0.33160850  0.81321825  1.0
  Li  Li24  1  0.12709075  0.83160850  0.31321825  1.0
  Li  Li24  1  0.12709075  0.83160850  0.81321825  1.0
  Li  Li24  1  0.62709075  0.33160850  0.31321825  1.0
  Li  Li24  1  0.62709075  0.33160850  0.81321825  1.0
  Li  Li24  1  0.62709075  0.83160850  0.31321825  1.0
  Li  Li24  1  0.62709075  0.83160850  0.81321825  1.0
  Li  Li25  1  0.25235425  0.03887000  0.12500000  1.0
  Li  Li25  1  0.25235425  0.03887000  0.62500000  1.0
  Li  Li25  1  0.25235425  0.53887000  0.12500000  1.0
  Li  Li25  1  0.25235425  0.53887000  0.62500000  1.0
  Li  Li25  1  0.75235425  0.03887000  0.12500000  1.0
  Li  Li25  1  0.75235425  0.03887000  0.62500000  1.0
  Li  Li25  1  0.75235425  0.53887000  0.12500000  1.0
  Li  Li25  1  0.75235425  0.53887000  0.62500000  1.0
  Li  Li26  1  0.37709075  0.08160850  0.18678175  1.0
  Li  Li26  1  0.37709075  0.08160850  0.68678175  1.0
  Li  Li26  1  0.37709075  0.58160850  0.18678175  1.0
  Li  Li26  1  0.37709075  0.58160850  0.68678175  1.0
  Li  Li26  1  0.87709075  0.08160850  0.18678175  1.0
  Li  Li26  1  0.87709075  0.08160850  0.68678175  1.0
  Li  Li26  1  0.87709075  0.58160850  0.18678175  1.0
  Li  Li26  1  0.87709075  0.58160850  0.68678175  1.0
  Li  Li27  1  0.25209075  0.16839150  0.18821825  1.0
  Li  Li27  1  0.25209075  0.16839150  0.68821825  1.0
  Li  Li27  1  0.25209075  0.66839150  0.18821825  1.0
  Li  Li27  1  0.25209075  0.66839150  0.68821825  1.0
  Li  Li27  1  0.75209075  0.16839150  0.18821825  1.0
  Li  Li27  1  0.75209075  0.16839150  0.68821825  1.0
  Li  Li27  1  0.75209075  0.66839150  0.18821825  1.0
  Li  Li27  1  0.75209075  0.66839150  0.68821825  1.0
  Li  Li28  1  0.25209075  0.16839150  0.06178175  1.0
  Li  Li28  1  0.25209075  0.16839150  0.56178175  1.0
  Li  Li28  1  0.25209075  0.66839150  0.06178175  1.0
  Li  Li28  1  0.25209075  0.66839150  0.56178175  1.0
  Li  Li28  1  0.75209075  0.16839150  0.06178175  1.0
  Li  Li28  1  0.75209075  0.16839150  0.56178175  1.0
  Li  Li28  1  0.75209075  0.66839150  0.06178175  1.0
  Li  Li28  1  0.75209075  0.66839150  0.56178175  1.0
  Li  Li29  1  0.37709075  0.08160850  0.06321825  1.0
  Li  Li29  1  0.37709075  0.08160850  0.56321825  1.0
  Li  Li29  1  0.37709075  0.58160850  0.06321825  1.0
  Li  Li29  1  0.37709075  0.58160850  0.56321825  1.0
  Li  Li29  1  0.87709075  0.08160850  0.06321825  1.0
  Li  Li29  1  0.87709075  0.08160850  0.56321825  1.0
  Li  Li29  1  0.87709075  0.58160850  0.06321825  1.0
  Li  Li29  1  0.87709075  0.58160850  0.56321825  1.0
  Li  Li30  1  0.37735425  0.21113000  0.25000000  1.0
  Li  Li30  1  0.37735425  0.21113000  0.75000000  1.0
  Li  Li30  1  0.37735425  0.71113000  0.25000000  1.0
  Li  Li30  1  0.37735425  0.71113000  0.75000000  1.0
  Li  Li30  1  0.87735425  0.21113000  0.25000000  1.0
  Li  Li30  1  0.87735425  0.21113000  0.75000000  1.0
  Li  Li30  1  0.87735425  0.71113000  0.25000000  1.0
  Li  Li30  1  0.87735425  0.71113000  0.75000000  1.0
  Li  Li31  1  0.25235425  0.03887000  0.37500000  1.0
  Li  Li31  1  0.25235425  0.03887000  0.87500000  1.0
  Li  Li31  1  0.25235425  0.53887000  0.37500000  1.0
  Li  Li31  1  0.25235425  0.53887000  0.87500000  1.0
  Li  Li31  1  0.75235425  0.03887000  0.37500000  1.0
  Li  Li31  1  0.75235425  0.03887000  0.87500000  1.0
  Li  Li31  1  0.75235425  0.53887000  0.37500000  1.0
  Li  Li31  1  0.75235425  0.53887000  0.87500000  1.0
  Li  Li32  1  0.37709075  0.08160850  0.43678175  1.0
  Li  Li32  1  0.37709075  0.08160850  0.93678175  1.0
  Li  Li32  1  0.37709075  0.58160850  0.43678175  1.0
  Li  Li32  1  0.37709075  0.58160850  0.93678175  1.0
  Li  Li32  1  0.87709075  0.08160850  0.43678175  1.0
  Li  Li32  1  0.87709075  0.08160850  0.93678175  1.0
  Li  Li32  1  0.87709075  0.58160850  0.43678175  1.0
  Li  Li32  1  0.87709075  0.58160850  0.93678175  1.0
  Li  Li33  1  0.25209075  0.16839150  0.43821825  1.0
  Li  Li33  1  0.25209075  0.16839150  0.93821825  1.0
  Li  Li33  1  0.25209075  0.66839150  0.43821825  1.0
  Li  Li33  1  0.25209075  0.66839150  0.93821825  1.0
  Li  Li33  1  0.75209075  0.16839150  0.43821825  1.0
  Li  Li33  1  0.75209075  0.16839150  0.93821825  1.0
  Li  Li33  1  0.75209075  0.66839150  0.43821825  1.0
  Li  Li33  1  0.75209075  0.66839150  0.93821825  1.0
  Li  Li34  1  0.25209075  0.16839150  0.31178175  1.0
  Li  Li34  1  0.25209075  0.16839150  0.81178175  1.0
  Li  Li34  1  0.25209075  0.66839150  0.31178175  1.0
  Li  Li34  1  0.25209075  0.66839150  0.81178175  1.0
  Li  Li34  1  0.75209075  0.16839150  0.31178175  1.0
  Li  Li34  1  0.75209075  0.16839150  0.81178175  1.0
  Li  Li34  1  0.75209075  0.66839150  0.31178175  1.0
  Li  Li34  1  0.75209075  0.66839150  0.81178175  1.0
  Li  Li35  1  0.37709075  0.08160850  0.31321825  1.0
  Li  Li35  1  0.37709075  0.08160850  0.81321825  1.0
  Li  Li35  1  0.37709075  0.58160850  0.31321825  1.0
  Li  Li35  1  0.37709075  0.58160850  0.81321825  1.0
  Li  Li35  1  0.87709075  0.08160850  0.31321825  1.0
  Li  Li35  1  0.87709075  0.08160850  0.81321825  1.0
  Li  Li35  1  0.87709075  0.58160850  0.31321825  1.0
  Li  Li35  1  0.87709075  0.58160850  0.81321825  1.0
  Li  Li36  1  0.37735425  0.46113000  0.00000000  1.0
  Li  Li36  1  0.37735425  0.46113000  0.50000000  1.0
  Li  Li36  1  0.37735425  0.96113000  0.00000000  1.0
  Li  Li36  1  0.37735425  0.96113000  0.50000000  1.0
  Li  Li36  1  0.87735425  0.46113000  0.00000000  1.0
  Li  Li36  1  0.87735425  0.46113000  0.50000000  1.0
  Li  Li36  1  0.87735425  0.96113000  0.00000000  1.0
  Li  Li36  1  0.87735425  0.96113000  0.50000000  1.0
  Li  Li37  1  0.25235425  0.28887000  0.12500000  1.0
  Li  Li37  1  0.25235425  0.28887000  0.62500000  1.0
  Li  Li37  1  0.25235425  0.78887000  0.12500000  1.0
  Li  Li37  1  0.25235425  0.78887000  0.62500000  1.0
  Li  Li37  1  0.75235425  0.28887000  0.12500000  1.0
  Li  Li37  1  0.75235425  0.28887000  0.62500000  1.0
  Li  Li37  1  0.75235425  0.78887000  0.12500000  1.0
  Li  Li37  1  0.75235425  0.78887000  0.62500000  1.0
  Li  Li38  1  0.37709075  0.33160850  0.18678175  1.0
  Li  Li38  1  0.37709075  0.33160850  0.68678175  1.0
  Li  Li38  1  0.37709075  0.83160850  0.18678175  1.0
  Li  Li38  1  0.37709075  0.83160850  0.68678175  1.0
  Li  Li38  1  0.87709075  0.33160850  0.18678175  1.0
  Li  Li38  1  0.87709075  0.33160850  0.68678175  1.0
  Li  Li38  1  0.87709075  0.83160850  0.18678175  1.0
  Li  Li38  1  0.87709075  0.83160850  0.68678175  1.0
  Li  Li39  1  0.25209075  0.41839150  0.18821825  1.0
  Li  Li39  1  0.25209075  0.41839150  0.68821825  1.0
  Li  Li39  1  0.25209075  0.91839150  0.18821825  1.0
  Li  Li39  1  0.25209075  0.91839150  0.68821825  1.0
  Li  Li39  1  0.75209075  0.41839150  0.18821825  1.0
  Li  Li39  1  0.75209075  0.41839150  0.68821825  1.0
  Li  Li39  1  0.75209075  0.91839150  0.18821825  1.0
  Li  Li39  1  0.75209075  0.91839150  0.68821825  1.0
  Li  Li40  1  0.25209075  0.41839150  0.06178175  1.0
  Li  Li40  1  0.25209075  0.41839150  0.56178175  1.0
  Li  Li40  1  0.25209075  0.91839150  0.06178175  1.0
  Li  Li40  1  0.25209075  0.91839150  0.56178175  1.0
  Li  Li40  1  0.75209075  0.41839150  0.06178175  1.0
  Li  Li40  1  0.75209075  0.41839150  0.56178175  1.0
  Li  Li40  1  0.75209075  0.91839150  0.06178175  1.0
  Li  Li40  1  0.75209075  0.91839150  0.56178175  1.0
  Li  Li41  1  0.37709075  0.33160850  0.06321825  1.0
  Li  Li41  1  0.37709075  0.33160850  0.56321825  1.0
  Li  Li41  1  0.37709075  0.83160850  0.06321825  1.0
  Li  Li41  1  0.37709075  0.83160850  0.56321825  1.0
  Li  Li41  1  0.87709075  0.33160850  0.06321825  1.0
  Li  Li41  1  0.87709075  0.33160850  0.56321825  1.0
  Li  Li41  1  0.87709075  0.83160850  0.06321825  1.0
  Li  Li41  1  0.87709075  0.83160850  0.56321825  1.0
  Li  Li42  1  0.37735425  0.46113000  0.25000000  1.0
  Li  Li42  1  0.37735425  0.46113000  0.75000000  1.0
  Li  Li42  1  0.37735425  0.96113000  0.25000000  1.0
  Li  Li42  1  0.37735425  0.96113000  0.75000000  1.0
  Li  Li42  1  0.87735425  0.46113000  0.25000000  1.0
  Li  Li42  1  0.87735425  0.46113000  0.75000000  1.0
  Li  Li42  1  0.87735425  0.96113000  0.25000000  1.0
  Li  Li42  1  0.87735425  0.96113000  0.75000000  1.0
  Li  Li43  1  0.25235425  0.28887000  0.37500000  1.0
  Li  Li43  1  0.25235425  0.28887000  0.87500000  1.0
  Li  Li43  1  0.25235425  0.78887000  0.37500000  1.0
  Li  Li43  1  0.25235425  0.78887000  0.87500000  1.0
  Li  Li43  1  0.75235425  0.28887000  0.37500000  1.0
  Li  Li43  1  0.75235425  0.28887000  0.87500000  1.0
  Li  Li43  1  0.75235425  0.78887000  0.37500000  1.0
  Li  Li43  1  0.75235425  0.78887000  0.87500000  1.0
  Li  Li44  1  0.37709075  0.33160850  0.43678175  1.0
  Li  Li44  1  0.37709075  0.33160850  0.93678175  1.0
  Li  Li44  1  0.37709075  0.83160850  0.43678175  1.0
  Li  Li44  1  0.37709075  0.83160850  0.93678175  1.0
  Li  Li44  1  0.87709075  0.33160850  0.43678175  1.0
  Li  Li44  1  0.87709075  0.33160850  0.93678175  1.0
  Li  Li44  1  0.87709075  0.83160850  0.43678175  1.0
  Li  Li44  1  0.87709075  0.83160850  0.93678175  1.0
  Li  Li45  1  0.25209075  0.41839150  0.43821825  1.0
  Li  Li45  1  0.25209075  0.41839150  0.93821825  1.0
  Li  Li45  1  0.25209075  0.91839150  0.43821825  1.0
  Li  Li45  1  0.25209075  0.91839150  0.93821825  1.0
  Li  Li45  1  0.75209075  0.41839150  0.43821825  1.0
  Li  Li45  1  0.75209075  0.41839150  0.93821825  1.0
  Li  Li45  1  0.75209075  0.91839150  0.43821825  1.0
  Li  Li45  1  0.75209075  0.91839150  0.93821825  1.0
  Li  Li46  1  0.25209075  0.41839150  0.31178175  1.0
  Li  Li46  1  0.25209075  0.41839150  0.81178175  1.0
  Li  Li46  1  0.25209075  0.91839150  0.31178175  1.0
  Li  Li46  1  0.25209075  0.91839150  0.81178175  1.0
  Li  Li46  1  0.75209075  0.41839150  0.31178175  1.0
  Li  Li46  1  0.75209075  0.41839150  0.81178175  1.0
  Li  Li46  1  0.75209075  0.91839150  0.31178175  1.0
  Li  Li46  1  0.75209075  0.91839150  0.81178175  1.0
  Li  Li47  1  0.37709075  0.33160850  0.31321825  1.0
  Li  Li47  1  0.37709075  0.33160850  0.81321825  1.0
  Li  Li47  1  0.37709075  0.83160850  0.31321825  1.0
  Li  Li47  1  0.37709075  0.83160850  0.81321825  1.0
  Li  Li47  1  0.87709075  0.33160850  0.31321825  1.0
  Li  Li47  1  0.87709075  0.33160850  0.81321825  1.0
  Li  Li47  1  0.87709075  0.83160850  0.31321825  1.0
  Li  Li47  1  0.87709075  0.83160850  0.81321825  1.0
  P  P1  1  0.12535500  0.20606525  0.12500000  1.0
  P  P1  1  0.12535500  0.20606525  0.62500000  1.0
  P  P1  1  0.12535500  0.70606525  0.12500000  1.0
  P  P1  1  0.12535500  0.70606525  0.62500000  1.0
  P  P1  1  0.62535500  0.20606525  0.12500000  1.0
  P  P1  1  0.62535500  0.20606525  0.62500000  1.0
  P  P1  1  0.62535500  0.70606525  0.12500000  1.0
  P  P1  1  0.62535500  0.70606525  0.62500000  1.0
  P  P2  1  0.00035500  0.04393475  0.00000000  1.0
  P  P2  1  0.00035500  0.04393475  0.50000000  1.0
  P  P2  1  0.00035500  0.54393475  0.00000000  1.0
  P  P2  1  0.00035500  0.54393475  0.50000000  1.0
  P  P2  1  0.50035500  0.04393475  0.00000000  1.0
  P  P2  1  0.50035500  0.04393475  0.50000000  1.0
  P  P2  1  0.50035500  0.54393475  0.00000000  1.0
  P  P2  1  0.50035500  0.54393475  0.50000000  1.0
  P  P3  1  0.12535500  0.20606525  0.37500000  1.0
  P  P3  1  0.12535500  0.20606525  0.87500000  1.0
  P  P3  1  0.12535500  0.70606525  0.37500000  1.0
  P  P3  1  0.12535500  0.70606525  0.87500000  1.0
  P  P3  1  0.62535500  0.20606525  0.37500000  1.0
  P  P3  1  0.62535500  0.20606525  0.87500000  1.0
  P  P3  1  0.62535500  0.70606525  0.37500000  1.0
  P  P3  1  0.62535500  0.70606525  0.87500000  1.0
  P  P4  1  0.00035500  0.04393475  0.25000000  1.0
  P  P4  1  0.00035500  0.04393475  0.75000000  1.0
  P  P4  1  0.00035500  0.54393475  0.25000000  1.0
  P  P4  1  0.00035500  0.54393475  0.75000000  1.0
  P  P4  1  0.50035500  0.04393475  0.25000000  1.0
  P  P4  1  0.50035500  0.04393475  0.75000000  1.0
  P  P4  1  0.50035500  0.54393475  0.25000000  1.0
  P  P4  1  0.50035500  0.54393475  0.75000000  1.0
  P  P5  1  0.12535500  0.45606525  0.12500000  1.0
  P  P5  1  0.12535500  0.45606525  0.62500000  1.0
  P  P5  1  0.12535500  0.95606525  0.12500000  1.0
  P  P5  1  0.12535500  0.95606525  0.62500000  1.0
  P  P5  1  0.62535500  0.45606525  0.12500000  1.0
  P  P5  1  0.62535500  0.45606525  0.62500000  1.0
  P  P5  1  0.62535500  0.95606525  0.12500000  1.0
  P  P5  1  0.62535500  0.95606525  0.62500000  1.0
  P  P6  1  0.00035500  0.29393475  0.00000000  1.0
  P  P6  1  0.00035500  0.29393475  0.50000000  1.0
  P  P6  1  0.00035500  0.79393475  0.00000000  1.0
  P  P6  1  0.00035500  0.79393475  0.50000000  1.0
  P  P6  1  0.50035500  0.29393475  0.00000000  1.0
  P  P6  1  0.50035500  0.29393475  0.50000000  1.0
  P  P6  1  0.50035500  0.79393475  0.00000000  1.0
  P  P6  1  0.50035500  0.79393475  0.50000000  1.0
  P  P7  1  0.12535500  0.45606525  0.37500000  1.0
  P  P7  1  0.12535500  0.45606525  0.87500000  1.0
  P  P7  1  0.12535500  0.95606525  0.37500000  1.0
  P  P7  1  0.12535500  0.95606525  0.87500000  1.0
  P  P7  1  0.62535500  0.45606525  0.37500000  1.0
  P  P7  1  0.62535500  0.45606525  0.87500000  1.0
  P  P7  1  0.62535500  0.95606525  0.37500000  1.0
  P  P7  1  0.62535500  0.95606525  0.87500000  1.0
  P  P8  1  0.00035500  0.29393475  0.25000000  1.0
  P  P8  1  0.00035500  0.29393475  0.75000000  1.0
  P  P8  1  0.00035500  0.79393475  0.25000000  1.0
  P  P8  1  0.00035500  0.79393475  0.75000000  1.0
  P  P8  1  0.50035500  0.29393475  0.25000000  1.0
  P  P8  1  0.50035500  0.29393475  0.75000000  1.0
  P  P8  1  0.50035500  0.79393475  0.25000000  1.0
  P  P8  1  0.50035500  0.79393475  0.75000000  1.0
  P  P9  1  0.37535500  0.20606525  0.12500000  1.0
  P  P9  1  0.37535500  0.20606525  0.62500000  1.0
  P  P9  1  0.37535500  0.70606525  0.12500000  1.0
  P  P9  1  0.37535500  0.70606525  0.62500000  1.0
  P  P9  1  0.87535500  0.20606525  0.12500000  1.0
  P  P9  1  0.87535500  0.20606525  0.62500000  1.0
  P  P9  1  0.87535500  0.70606525  0.12500000  1.0
  P  P9  1  0.87535500  0.70606525  0.62500000  1.0
  P  P10  1  0.25035500  0.04393475  0.00000000  1.0
  P  P10  1  0.25035500  0.04393475  0.50000000  1.0
  P  P10  1  0.25035500  0.54393475  0.00000000  1.0
  P  P10  1  0.25035500  0.54393475  0.50000000  1.0
  P  P10  1  0.75035500  0.04393475  0.00000000  1.0
  P  P10  1  0.75035500  0.04393475  0.50000000  1.0
  P  P10  1  0.75035500  0.54393475  0.00000000  1.0
  P  P10  1  0.75035500  0.54393475  0.50000000  1.0
  P  P11  1  0.37535500  0.20606525  0.37500000  1.0
  P  P11  1  0.37535500  0.20606525  0.87500000  1.0
  P  P11  1  0.37535500  0.70606525  0.37500000  1.0
  P  P11  1  0.37535500  0.70606525  0.87500000  1.0
  P  P11  1  0.87535500  0.20606525  0.37500000  1.0
  P  P11  1  0.87535500  0.20606525  0.87500000  1.0
  P  P11  1  0.87535500  0.70606525  0.37500000  1.0
  P  P11  1  0.87535500  0.70606525  0.87500000  1.0
  P  P12  1  0.25035500  0.04393475  0.25000000  1.0
  P  P12  1  0.25035500  0.04393475  0.75000000  1.0
  P  P12  1  0.25035500  0.54393475  0.25000000  1.0
  P  P12  1  0.25035500  0.54393475  0.75000000  1.0
  P  P12  1  0.75035500  0.04393475  0.25000000  1.0
  P  P12  1  0.75035500  0.04393475  0.75000000  1.0
  P  P12  1  0.75035500  0.54393475  0.25000000  1.0
  P  P12  1  0.75035500  0.54393475  0.75000000  1.0
  P  P13  1  0.37535500  0.45606525  0.12500000  1.0
  P  P13  1  0.37535500  0.45606525  0.62500000  1.0
  P  P13  1  0.37535500  0.95606525  0.12500000  1.0
  P  P13  1  0.37535500  0.95606525  0.62500000  1.0
  P  P13  1  0.87535500  0.45606525  0.12500000  1.0
  P  P13  1  0.87535500  0.45606525  0.62500000  1.0
  P  P13  1  0.87535500  0.95606525  0.12500000  1.0
  P  P13  1  0.87535500  0.95606525  0.62500000  1.0
  P  P14  1  0.25035500  0.29393475  0.00000000  1.0
  P  P14  1  0.25035500  0.29393475  0.50000000  1.0
  P  P14  1  0.25035500  0.79393475  0.00000000  1.0
  P  P14  1  0.25035500  0.79393475  0.50000000  1.0
  P  P14  1  0.75035500  0.29393475  0.00000000  1.0
  P  P14  1  0.75035500  0.29393475  0.50000000  1.0
  P  P14  1  0.75035500  0.79393475  0.00000000  1.0
  P  P14  1  0.75035500  0.79393475  0.50000000  1.0
  P  P15  1  0.37535500  0.45606525  0.37500000  1.0
  P  P15  1  0.37535500  0.45606525  0.87500000  1.0
  P  P15  1  0.37535500  0.95606525  0.37500000  1.0
  P  P15  1  0.37535500  0.95606525  0.87500000  1.0
  P  P15  1  0.87535500  0.45606525  0.37500000  1.0
  P  P15  1  0.87535500  0.45606525  0.87500000  1.0
  P  P15  1  0.87535500  0.95606525  0.37500000  1.0
  P  P15  1  0.87535500  0.95606525  0.87500000  1.0
  P  P16  1  0.25035500  0.29393475  0.25000000  1.0
  P  P16  1  0.25035500  0.29393475  0.75000000  1.0
  P  P16  1  0.25035500  0.79393475  0.25000000  1.0
  P  P16  1  0.25035500  0.79393475  0.75000000  1.0
  P  P16  1  0.75035500  0.29393475  0.25000000  1.0
  P  P16  1  0.75035500  0.29393475  0.75000000  1.0
  P  P16  1  0.75035500  0.79393475  0.25000000  1.0
  P  P16  1  0.75035500  0.79393475  0.75000000  1.0
  N  N1  1  0.02675250  0.07837725  0.05178450  1.0
  N  N1  1  0.02675250  0.07837725  0.55178450  1.0
  N  N1  1  0.02675250  0.57837725  0.05178450  1.0
  N  N1  1  0.02675250  0.57837725  0.55178450  1.0
  N  N1  1  0.52675250  0.07837725  0.05178450  1.0
  N  N1  1  0.52675250  0.07837725  0.55178450  1.0
  N  N1  1  0.52675250  0.57837725  0.05178450  1.0
  N  N1  1  0.52675250  0.57837725  0.55178450  1.0
  N  N2  1  0.02675250  0.07837725  0.19821550  1.0
  N  N2  1  0.02675250  0.07837725  0.69821550  1.0
  N  N2  1  0.02675250  0.57837725  0.19821550  1.0
  N  N2  1  0.02675250  0.57837725  0.69821550  1.0
  N  N2  1  0.52675250  0.07837725  0.19821550  1.0
  N  N2  1  0.52675250  0.07837725  0.69821550  1.0
  N  N2  1  0.52675250  0.57837725  0.19821550  1.0
  N  N2  1  0.52675250  0.57837725  0.69821550  1.0
  N  N3  1  0.40175250  0.17162275  0.42678450  1.0
  N  N3  1  0.40175250  0.17162275  0.92678450  1.0
  N  N3  1  0.40175250  0.67162275  0.42678450  1.0
  N  N3  1  0.40175250  0.67162275  0.92678450  1.0
  N  N3  1  0.90175250  0.17162275  0.42678450  1.0
  N  N3  1  0.90175250  0.17162275  0.92678450  1.0
  N  N3  1  0.90175250  0.67162275  0.42678450  1.0
  N  N3  1  0.90175250  0.67162275  0.92678450  1.0
  N  N4  1  0.40175250  0.42162275  0.17678450  1.0
  N  N4  1  0.40175250  0.42162275  0.67678450  1.0
  N  N4  1  0.40175250  0.92162275  0.17678450  1.0
  N  N4  1  0.40175250  0.92162275  0.67678450  1.0
  N  N4  1  0.90175250  0.42162275  0.17678450  1.0
  N  N4  1  0.90175250  0.42162275  0.67678450  1.0
  N  N4  1  0.90175250  0.92162275  0.17678450  1.0
  N  N4  1  0.90175250  0.92162275  0.67678450  1.0
  N  N5  1  0.29629775  0.45459900  0.37500000  1.0
  N  N5  1  0.29629775  0.45459900  0.87500000  1.0
  N  N5  1  0.29629775  0.95459900  0.37500000  1.0
  N  N5  1  0.29629775  0.95459900  0.87500000  1.0
  N  N5  1  0.79629775  0.45459900  0.37500000  1.0
  N  N5  1  0.79629775  0.45459900  0.87500000  1.0
  N  N5  1  0.79629775  0.95459900  0.37500000  1.0
  N  N5  1  0.79629775  0.95459900  0.87500000  1.0
  O  O1  1  0.15053150  0.02587700  0.12500000  1.0
  O  O1  1  0.15053150  0.02587700  0.62500000  1.0
  O  O1  1  0.15053150  0.52587700  0.12500000  1.0
  O  O1  1  0.15053150  0.52587700  0.62500000  1.0
  O  O1  1  0.65053150  0.02587700  0.12500000  1.0
  O  O1  1  0.65053150  0.02587700  0.62500000  1.0
  O  O1  1  0.65053150  0.52587700  0.12500000  1.0
  O  O1  1  0.65053150  0.52587700  0.62500000  1.0
  O  O2  1  0.04629775  0.20459900  0.12500000  1.0
  O  O2  1  0.04629775  0.20459900  0.62500000  1.0
  O  O2  1  0.04629775  0.70459900  0.12500000  1.0
  O  O2  1  0.04629775  0.70459900  0.62500000  1.0
  O  O2  1  0.54629775  0.20459900  0.12500000  1.0
  O  O2  1  0.54629775  0.20459900  0.62500000  1.0
  O  O2  1  0.54629775  0.70459900  0.12500000  1.0
  O  O2  1  0.54629775  0.70459900  0.62500000  1.0
  O  O3  1  0.17129775  0.04540100  0.00000000  1.0
  O  O3  1  0.17129775  0.04540100  0.50000000  1.0
  O  O3  1  0.17129775  0.54540100  0.00000000  1.0
  O  O3  1  0.17129775  0.54540100  0.50000000  1.0
  O  O3  1  0.67129775  0.04540100  0.00000000  1.0
  O  O3  1  0.67129775  0.04540100  0.50000000  1.0
  O  O3  1  0.67129775  0.54540100  0.00000000  1.0
  O  O3  1  0.67129775  0.54540100  0.50000000  1.0
  O  O4  1  0.15175250  0.17162275  0.17678450  1.0
  O  O4  1  0.15175250  0.17162275  0.67678450  1.0
  O  O4  1  0.15175250  0.67162275  0.17678450  1.0
  O  O4  1  0.15175250  0.67162275  0.67678450  1.0
  O  O4  1  0.65175250  0.17162275  0.17678450  1.0
  O  O4  1  0.65175250  0.17162275  0.67678450  1.0
  O  O4  1  0.65175250  0.67162275  0.17678450  1.0
  O  O4  1  0.65175250  0.67162275  0.67678450  1.0
  O  O5  1  0.02553150  0.22412300  0.00000000  1.0
  O  O5  1  0.02553150  0.22412300  0.50000000  1.0
  O  O5  1  0.02553150  0.72412300  0.00000000  1.0
  O  O5  1  0.02553150  0.72412300  0.50000000  1.0
  O  O5  1  0.52553150  0.22412300  0.00000000  1.0
  O  O5  1  0.52553150  0.22412300  0.50000000  1.0
  O  O5  1  0.52553150  0.72412300  0.00000000  1.0
  O  O5  1  0.52553150  0.72412300  0.50000000  1.0
  O  O6  1  0.15175250  0.17162275  0.07321550  1.0
  O  O6  1  0.15175250  0.17162275  0.57321550  1.0
  O  O6  1  0.15175250  0.67162275  0.07321550  1.0
  O  O6  1  0.15175250  0.67162275  0.57321550  1.0
  O  O6  1  0.65175250  0.17162275  0.07321550  1.0
  O  O6  1  0.65175250  0.17162275  0.57321550  1.0
  O  O6  1  0.65175250  0.67162275  0.07321550  1.0
  O  O6  1  0.65175250  0.67162275  0.57321550  1.0
  O  O7  1  0.02675250  0.07837725  0.30178450  1.0
  O  O7  1  0.02675250  0.07837725  0.80178450  1.0
  O  O7  1  0.02675250  0.57837725  0.30178450  1.0
  O  O7  1  0.02675250  0.57837725  0.80178450  1.0
  O  O7  1  0.52675250  0.07837725  0.30178450  1.0
  O  O7  1  0.52675250  0.07837725  0.80178450  1.0
  O  O7  1  0.52675250  0.57837725  0.30178450  1.0
  O  O7  1  0.52675250  0.57837725  0.80178450  1.0
  O  O8  1  0.15053150  0.02587700  0.37500000  1.0
  O  O8  1  0.15053150  0.02587700  0.87500000  1.0
  O  O8  1  0.15053150  0.52587700  0.37500000  1.0
  O  O8  1  0.15053150  0.52587700  0.87500000  1.0
  O  O8  1  0.65053150  0.02587700  0.37500000  1.0
  O  O8  1  0.65053150  0.02587700  0.87500000  1.0
  O  O8  1  0.65053150  0.52587700  0.37500000  1.0
  O  O8  1  0.65053150  0.52587700  0.87500000  1.0
  O  O9  1  0.04629775  0.20459900  0.37500000  1.0
  O  O9  1  0.04629775  0.20459900  0.87500000  1.0
  O  O9  1  0.04629775  0.70459900  0.37500000  1.0
  O  O9  1  0.04629775  0.70459900  0.87500000  1.0
  O  O9  1  0.54629775  0.20459900  0.37500000  1.0
  O  O9  1  0.54629775  0.20459900  0.87500000  1.0
  O  O9  1  0.54629775  0.70459900  0.37500000  1.0
  O  O9  1  0.54629775  0.70459900  0.87500000  1.0
  O  O10  1  0.17129775  0.04540100  0.25000000  1.0
  O  O10  1  0.17129775  0.04540100  0.75000000  1.0
  O  O10  1  0.17129775  0.54540100  0.25000000  1.0
  O  O10  1  0.17129775  0.54540100  0.75000000  1.0
  O  O10  1  0.67129775  0.04540100  0.25000000  1.0
  O  O10  1  0.67129775  0.04540100  0.75000000  1.0
  O  O10  1  0.67129775  0.54540100  0.25000000  1.0
  O  O10  1  0.67129775  0.54540100  0.75000000  1.0
  O  O11  1  0.15175250  0.17162275  0.42678450  1.0
  O  O11  1  0.15175250  0.17162275  0.92678450  1.0
  O  O11  1  0.15175250  0.67162275  0.42678450  1.0
  O  O11  1  0.15175250  0.67162275  0.92678450  1.0
  O  O11  1  0.65175250  0.17162275  0.42678450  1.0
  O  O11  1  0.65175250  0.17162275  0.92678450  1.0
  O  O11  1  0.65175250  0.67162275  0.42678450  1.0
  O  O11  1  0.65175250  0.67162275  0.92678450  1.0
  O  O12  1  0.02675250  0.07837725  0.44821550  1.0
  O  O12  1  0.02675250  0.07837725  0.94821550  1.0
  O  O12  1  0.02675250  0.57837725  0.44821550  1.0
  O  O12  1  0.02675250  0.57837725  0.94821550  1.0
  O  O12  1  0.52675250  0.07837725  0.44821550  1.0
  O  O12  1  0.52675250  0.07837725  0.94821550  1.0
  O  O12  1  0.52675250  0.57837725  0.44821550  1.0
  O  O12  1  0.52675250  0.57837725  0.94821550  1.0
  O  O13  1  0.02553150  0.22412300  0.25000000  1.0
  O  O13  1  0.02553150  0.22412300  0.75000000  1.0
  O  O13  1  0.02553150  0.72412300  0.25000000  1.0
  O  O13  1  0.02553150  0.72412300  0.75000000  1.0
  O  O13  1  0.52553150  0.22412300  0.25000000  1.0
  O  O13  1  0.52553150  0.22412300  0.75000000  1.0
  O  O13  1  0.52553150  0.72412300  0.25000000  1.0
  O  O13  1  0.52553150  0.72412300  0.75000000  1.0
  O  O14  1  0.15175250  0.17162275  0.32321550  1.0
  O  O14  1  0.15175250  0.17162275  0.82321550  1.0
  O  O14  1  0.15175250  0.67162275  0.32321550  1.0
  O  O14  1  0.15175250  0.67162275  0.82321550  1.0
  O  O14  1  0.65175250  0.17162275  0.32321550  1.0
  O  O14  1  0.65175250  0.17162275  0.82321550  1.0
  O  O14  1  0.65175250  0.67162275  0.32321550  1.0
  O  O14  1  0.65175250  0.67162275  0.82321550  1.0
  O  O15  1  0.02675250  0.32837725  0.05178450  1.0
  O  O15  1  0.02675250  0.32837725  0.55178450  1.0
  O  O15  1  0.02675250  0.82837725  0.05178450  1.0
  O  O15  1  0.02675250  0.82837725  0.55178450  1.0
  O  O15  1  0.52675250  0.32837725  0.05178450  1.0
  O  O15  1  0.52675250  0.32837725  0.55178450  1.0
  O  O15  1  0.52675250  0.82837725  0.05178450  1.0
  O  O15  1  0.52675250  0.82837725  0.55178450  1.0
  O  O16  1  0.15053150  0.27587700  0.12500000  1.0
  O  O16  1  0.15053150  0.27587700  0.62500000  1.0
  O  O16  1  0.15053150  0.77587700  0.12500000  1.0
  O  O16  1  0.15053150  0.77587700  0.62500000  1.0
  O  O16  1  0.65053150  0.27587700  0.12500000  1.0
  O  O16  1  0.65053150  0.27587700  0.62500000  1.0
  O  O16  1  0.65053150  0.77587700  0.12500000  1.0
  O  O16  1  0.65053150  0.77587700  0.62500000  1.0
  O  O17  1  0.04629775  0.45459900  0.12500000  1.0
  O  O17  1  0.04629775  0.45459900  0.62500000  1.0
  O  O17  1  0.04629775  0.95459900  0.12500000  1.0
  O  O17  1  0.04629775  0.95459900  0.62500000  1.0
  O  O17  1  0.54629775  0.45459900  0.12500000  1.0
  O  O17  1  0.54629775  0.45459900  0.62500000  1.0
  O  O17  1  0.54629775  0.95459900  0.12500000  1.0
  O  O17  1  0.54629775  0.95459900  0.62500000  1.0
  O  O18  1  0.17129775  0.29540100  0.00000000  1.0
  O  O18  1  0.17129775  0.29540100  0.50000000  1.0
  O  O18  1  0.17129775  0.79540100  0.00000000  1.0
  O  O18  1  0.17129775  0.79540100  0.50000000  1.0
  O  O18  1  0.67129775  0.29540100  0.00000000  1.0
  O  O18  1  0.67129775  0.29540100  0.50000000  1.0
  O  O18  1  0.67129775  0.79540100  0.00000000  1.0
  O  O18  1  0.67129775  0.79540100  0.50000000  1.0
  O  O19  1  0.15175250  0.42162275  0.17678450  1.0
  O  O19  1  0.15175250  0.42162275  0.67678450  1.0
  O  O19  1  0.15175250  0.92162275  0.17678450  1.0
  O  O19  1  0.15175250  0.92162275  0.67678450  1.0
  O  O19  1  0.65175250  0.42162275  0.17678450  1.0
  O  O19  1  0.65175250  0.42162275  0.67678450  1.0
  O  O19  1  0.65175250  0.92162275  0.17678450  1.0
  O  O19  1  0.65175250  0.92162275  0.67678450  1.0
  O  O20  1  0.02675250  0.32837725  0.19821550  1.0
  O  O20  1  0.02675250  0.32837725  0.69821550  1.0
  O  O20  1  0.02675250  0.82837725  0.19821550  1.0
  O  O20  1  0.02675250  0.82837725  0.69821550  1.0
  O  O20  1  0.52675250  0.32837725  0.19821550  1.0
  O  O20  1  0.52675250  0.32837725  0.69821550  1.0
  O  O20  1  0.52675250  0.82837725  0.19821550  1.0
  O  O20  1  0.52675250  0.82837725  0.69821550  1.0
  O  O21  1  0.02553150  0.47412300  0.00000000  1.0
  O  O21  1  0.02553150  0.47412300  0.50000000  1.0
  O  O21  1  0.02553150  0.97412300  0.00000000  1.0
  O  O21  1  0.02553150  0.97412300  0.50000000  1.0
  O  O21  1  0.52553150  0.47412300  0.00000000  1.0
  O  O21  1  0.52553150  0.47412300  0.50000000  1.0
  O  O21  1  0.52553150  0.97412300  0.00000000  1.0
  O  O21  1  0.52553150  0.97412300  0.50000000  1.0
  O  O22  1  0.15175250  0.42162275  0.07321550  1.0
  O  O22  1  0.15175250  0.42162275  0.57321550  1.0
  O  O22  1  0.15175250  0.92162275  0.07321550  1.0
  O  O22  1  0.15175250  0.92162275  0.57321550  1.0
  O  O22  1  0.65175250  0.42162275  0.07321550  1.0
  O  O22  1  0.65175250  0.42162275  0.57321550  1.0
  O  O22  1  0.65175250  0.92162275  0.07321550  1.0
  O  O22  1  0.65175250  0.92162275  0.57321550  1.0
  O  O23  1  0.02675250  0.32837725  0.30178450  1.0
  O  O23  1  0.02675250  0.32837725  0.80178450  1.0
  O  O23  1  0.02675250  0.82837725  0.30178450  1.0
  O  O23  1  0.02675250  0.82837725  0.80178450  1.0
  O  O23  1  0.52675250  0.32837725  0.30178450  1.0
  O  O23  1  0.52675250  0.32837725  0.80178450  1.0
  O  O23  1  0.52675250  0.82837725  0.30178450  1.0
  O  O23  1  0.52675250  0.82837725  0.80178450  1.0
  O  O24  1  0.15053150  0.27587700  0.37500000  1.0
  O  O24  1  0.15053150  0.27587700  0.87500000  1.0
  O  O24  1  0.15053150  0.77587700  0.37500000  1.0
  O  O24  1  0.15053150  0.77587700  0.87500000  1.0
  O  O24  1  0.65053150  0.27587700  0.37500000  1.0
  O  O24  1  0.65053150  0.27587700  0.87500000  1.0
  O  O24  1  0.65053150  0.77587700  0.37500000  1.0
  O  O24  1  0.65053150  0.77587700  0.87500000  1.0
  O  O25  1  0.04629775  0.45459900  0.37500000  1.0
  O  O25  1  0.04629775  0.45459900  0.87500000  1.0
  O  O25  1  0.04629775  0.95459900  0.37500000  1.0
  O  O25  1  0.04629775  0.95459900  0.87500000  1.0
  O  O25  1  0.54629775  0.45459900  0.37500000  1.0
  O  O25  1  0.54629775  0.45459900  0.87500000  1.0
  O  O25  1  0.54629775  0.95459900  0.37500000  1.0
  O  O25  1  0.54629775  0.95459900  0.87500000  1.0
  O  O26  1  0.17129775  0.29540100  0.25000000  1.0
  O  O26  1  0.17129775  0.29540100  0.75000000  1.0
  O  O26  1  0.17129775  0.79540100  0.25000000  1.0
  O  O26  1  0.17129775  0.79540100  0.75000000  1.0
  O  O26  1  0.67129775  0.29540100  0.25000000  1.0
  O  O26  1  0.67129775  0.29540100  0.75000000  1.0
  O  O26  1  0.67129775  0.79540100  0.25000000  1.0
  O  O26  1  0.67129775  0.79540100  0.75000000  1.0
  O  O27  1  0.15175250  0.42162275  0.42678450  1.0
  O  O27  1  0.15175250  0.42162275  0.92678450  1.0
  O  O27  1  0.15175250  0.92162275  0.42678450  1.0
  O  O27  1  0.15175250  0.92162275  0.92678450  1.0
  O  O27  1  0.65175250  0.42162275  0.42678450  1.0
  O  O27  1  0.65175250  0.42162275  0.92678450  1.0
  O  O27  1  0.65175250  0.92162275  0.42678450  1.0
  O  O27  1  0.65175250  0.92162275  0.92678450  1.0
  O  O28  1  0.02675250  0.32837725  0.44821550  1.0
  O  O28  1  0.02675250  0.32837725  0.94821550  1.0
  O  O28  1  0.02675250  0.82837725  0.44821550  1.0
  O  O28  1  0.02675250  0.82837725  0.94821550  1.0
  O  O28  1  0.52675250  0.32837725  0.44821550  1.0
  O  O28  1  0.52675250  0.32837725  0.94821550  1.0
  O  O28  1  0.52675250  0.82837725  0.44821550  1.0
  O  O28  1  0.52675250  0.82837725  0.94821550  1.0
  O  O29  1  0.02553150  0.47412300  0.25000000  1.0
  O  O29  1  0.02553150  0.47412300  0.75000000  1.0
  O  O29  1  0.02553150  0.97412300  0.25000000  1.0
  O  O29  1  0.02553150  0.97412300  0.75000000  1.0
  O  O29  1  0.52553150  0.47412300  0.25000000  1.0
  O  O29  1  0.52553150  0.47412300  0.75000000  1.0
  O  O29  1  0.52553150  0.97412300  0.25000000  1.0
  O  O29  1  0.52553150  0.97412300  0.75000000  1.0
  O  O30  1  0.15175250  0.42162275  0.32321550  1.0
  O  O30  1  0.15175250  0.42162275  0.82321550  1.0
  O  O30  1  0.15175250  0.92162275  0.32321550  1.0
  O  O30  1  0.15175250  0.92162275  0.82321550  1.0
  O  O30  1  0.65175250  0.42162275  0.32321550  1.0
  O  O30  1  0.65175250  0.42162275  0.82321550  1.0
  O  O30  1  0.65175250  0.92162275  0.32321550  1.0
  O  O30  1  0.65175250  0.92162275  0.82321550  1.0
  O  O31  1  0.27675250  0.07837725  0.05178450  1.0
  O  O31  1  0.27675250  0.07837725  0.55178450  1.0
  O  O31  1  0.27675250  0.57837725  0.05178450  1.0
  O  O31  1  0.27675250  0.57837725  0.55178450  1.0
  O  O31  1  0.77675250  0.07837725  0.05178450  1.0
  O  O31  1  0.77675250  0.07837725  0.55178450  1.0
  O  O31  1  0.77675250  0.57837725  0.05178450  1.0
  O  O31  1  0.77675250  0.57837725  0.55178450  1.0
  O  O32  1  0.40053150  0.02587700  0.12500000  1.0
  O  O32  1  0.40053150  0.02587700  0.62500000  1.0
  O  O32  1  0.40053150  0.52587700  0.12500000  1.0
  O  O32  1  0.40053150  0.52587700  0.62500000  1.0
  O  O32  1  0.90053150  0.02587700  0.12500000  1.0
  O  O32  1  0.90053150  0.02587700  0.62500000  1.0
  O  O32  1  0.90053150  0.52587700  0.12500000  1.0
  O  O32  1  0.90053150  0.52587700  0.62500000  1.0
  O  O33  1  0.29629775  0.20459900  0.12500000  1.0
  O  O33  1  0.29629775  0.20459900  0.62500000  1.0
  O  O33  1  0.29629775  0.70459900  0.12500000  1.0
  O  O33  1  0.29629775  0.70459900  0.62500000  1.0
  O  O33  1  0.79629775  0.20459900  0.12500000  1.0
  O  O33  1  0.79629775  0.20459900  0.62500000  1.0
  O  O33  1  0.79629775  0.70459900  0.12500000  1.0
  O  O33  1  0.79629775  0.70459900  0.62500000  1.0
  O  O34  1  0.42129775  0.04540100  0.00000000  1.0
  O  O34  1  0.42129775  0.04540100  0.50000000  1.0
  O  O34  1  0.42129775  0.54540100  0.00000000  1.0
  O  O34  1  0.42129775  0.54540100  0.50000000  1.0
  O  O34  1  0.92129775  0.04540100  0.00000000  1.0
  O  O34  1  0.92129775  0.04540100  0.50000000  1.0
  O  O34  1  0.92129775  0.54540100  0.00000000  1.0
  O  O34  1  0.92129775  0.54540100  0.50000000  1.0
  O  O35  1  0.40175250  0.17162275  0.17678450  1.0
  O  O35  1  0.40175250  0.17162275  0.67678450  1.0
  O  O35  1  0.40175250  0.67162275  0.17678450  1.0
  O  O35  1  0.40175250  0.67162275  0.67678450  1.0
  O  O35  1  0.90175250  0.17162275  0.17678450  1.0
  O  O35  1  0.90175250  0.17162275  0.67678450  1.0
  O  O35  1  0.90175250  0.67162275  0.17678450  1.0
  O  O35  1  0.90175250  0.67162275  0.67678450  1.0
  O  O36  1  0.27675250  0.07837725  0.19821550  1.0
  O  O36  1  0.27675250  0.07837725  0.69821550  1.0
  O  O36  1  0.27675250  0.57837725  0.19821550  1.0
  O  O36  1  0.27675250  0.57837725  0.69821550  1.0
  O  O36  1  0.77675250  0.07837725  0.19821550  1.0
  O  O36  1  0.77675250  0.07837725  0.69821550  1.0
  O  O36  1  0.77675250  0.57837725  0.19821550  1.0
  O  O36  1  0.77675250  0.57837725  0.69821550  1.0
  O  O37  1  0.27553150  0.22412300  0.00000000  1.0
  O  O37  1  0.27553150  0.22412300  0.50000000  1.0
  O  O37  1  0.27553150  0.72412300  0.00000000  1.0
  O  O37  1  0.27553150  0.72412300  0.50000000  1.0
  O  O37  1  0.77553150  0.22412300  0.00000000  1.0
  O  O37  1  0.77553150  0.22412300  0.50000000  1.0
  O  O37  1  0.77553150  0.72412300  0.00000000  1.0
  O  O37  1  0.77553150  0.72412300  0.50000000  1.0
  O  O38  1  0.40175250  0.17162275  0.07321550  1.0
  O  O38  1  0.40175250  0.17162275  0.57321550  1.0
  O  O38  1  0.40175250  0.67162275  0.07321550  1.0
  O  O38  1  0.40175250  0.67162275  0.57321550  1.0
  O  O38  1  0.90175250  0.17162275  0.07321550  1.0
  O  O38  1  0.90175250  0.17162275  0.57321550  1.0
  O  O38  1  0.90175250  0.67162275  0.07321550  1.0
  O  O38  1  0.90175250  0.67162275  0.57321550  1.0
  O  O39  1  0.27675250  0.07837725  0.30178450  1.0
  O  O39  1  0.27675250  0.07837725  0.80178450  1.0
  O  O39  1  0.27675250  0.57837725  0.30178450  1.0
  O  O39  1  0.27675250  0.57837725  0.80178450  1.0
  O  O39  1  0.77675250  0.07837725  0.30178450  1.0
  O  O39  1  0.77675250  0.07837725  0.80178450  1.0
  O  O39  1  0.77675250  0.57837725  0.30178450  1.0
  O  O39  1  0.77675250  0.57837725  0.80178450  1.0
  O  O40  1  0.40053150  0.02587700  0.37500000  1.0
  O  O40  1  0.40053150  0.02587700  0.87500000  1.0
  O  O40  1  0.40053150  0.52587700  0.37500000  1.0
  O  O40  1  0.40053150  0.52587700  0.87500000  1.0
  O  O40  1  0.90053150  0.02587700  0.37500000  1.0
  O  O40  1  0.90053150  0.02587700  0.87500000  1.0
  O  O40  1  0.90053150  0.52587700  0.37500000  1.0
  O  O40  1  0.90053150  0.52587700  0.87500000  1.0
  O  O41  1  0.42129775  0.04540100  0.25000000  1.0
  O  O41  1  0.42129775  0.04540100  0.75000000  1.0
  O  O41  1  0.42129775  0.54540100  0.25000000  1.0
  O  O41  1  0.42129775  0.54540100  0.75000000  1.0
  O  O41  1  0.92129775  0.04540100  0.25000000  1.0
  O  O41  1  0.92129775  0.04540100  0.75000000  1.0
  O  O41  1  0.92129775  0.54540100  0.25000000  1.0
  O  O41  1  0.92129775  0.54540100  0.75000000  1.0
  O  O42  1  0.27675250  0.07837725  0.44821550  1.0
  O  O42  1  0.27675250  0.07837725  0.94821550  1.0
  O  O42  1  0.27675250  0.57837725  0.44821550  1.0
  O  O42  1  0.27675250  0.57837725  0.94821550  1.0
  O  O42  1  0.77675250  0.07837725  0.44821550  1.0
  O  O42  1  0.77675250  0.07837725  0.94821550  1.0
  O  O42  1  0.77675250  0.57837725  0.44821550  1.0
  O  O42  1  0.77675250  0.57837725  0.94821550  1.0
  O  O43  1  0.27553150  0.22412300  0.25000000  1.0
  O  O43  1  0.27553150  0.22412300  0.75000000  1.0
  O  O43  1  0.27553150  0.72412300  0.25000000  1.0
  O  O43  1  0.27553150  0.72412300  0.75000000  1.0
  O  O43  1  0.77553150  0.22412300  0.25000000  1.0
  O  O43  1  0.77553150  0.22412300  0.75000000  1.0
  O  O43  1  0.77553150  0.72412300  0.25000000  1.0
  O  O43  1  0.77553150  0.72412300  0.75000000  1.0
  O  O44  1  0.40175250  0.17162275  0.32321550  1.0
  O  O44  1  0.40175250  0.17162275  0.82321550  1.0
  O  O44  1  0.40175250  0.67162275  0.32321550  1.0
  O  O44  1  0.40175250  0.67162275  0.82321550  1.0
  O  O44  1  0.90175250  0.17162275  0.32321550  1.0
  O  O44  1  0.90175250  0.17162275  0.82321550  1.0
  O  O44  1  0.90175250  0.67162275  0.32321550  1.0
  O  O44  1  0.90175250  0.67162275  0.82321550  1.0
  O  O45  1  0.27675250  0.32837725  0.05178450  1.0
  O  O45  1  0.27675250  0.32837725  0.55178450  1.0
  O  O45  1  0.27675250  0.82837725  0.05178450  1.0
  O  O45  1  0.27675250  0.82837725  0.55178450  1.0
  O  O45  1  0.77675250  0.32837725  0.05178450  1.0
  O  O45  1  0.77675250  0.32837725  0.55178450  1.0
  O  O45  1  0.77675250  0.82837725  0.05178450  1.0
  O  O45  1  0.77675250  0.82837725  0.55178450  1.0
  O  O46  1  0.40053150  0.27587700  0.12500000  1.0
  O  O46  1  0.40053150  0.27587700  0.62500000  1.0
  O  O46  1  0.40053150  0.77587700  0.12500000  1.0
  O  O46  1  0.40053150  0.77587700  0.62500000  1.0
  O  O46  1  0.90053150  0.27587700  0.12500000  1.0
  O  O46  1  0.90053150  0.27587700  0.62500000  1.0
  O  O46  1  0.90053150  0.77587700  0.12500000  1.0
  O  O46  1  0.90053150  0.77587700  0.62500000  1.0
  O  O47  1  0.42129775  0.29540100  0.00000000  1.0
  O  O47  1  0.42129775  0.29540100  0.50000000  1.0
  O  O47  1  0.42129775  0.79540100  0.00000000  1.0
  O  O47  1  0.42129775  0.79540100  0.50000000  1.0
  O  O47  1  0.92129775  0.29540100  0.00000000  1.0
  O  O47  1  0.92129775  0.29540100  0.50000000  1.0
  O  O47  1  0.92129775  0.79540100  0.00000000  1.0
  O  O47  1  0.92129775  0.79540100  0.50000000  1.0
  O  O48  1  0.27675250  0.32837725  0.19821550  1.0
  O  O48  1  0.27675250  0.32837725  0.69821550  1.0
  O  O48  1  0.27675250  0.82837725  0.19821550  1.0
  O  O48  1  0.27675250  0.82837725  0.69821550  1.0
  O  O48  1  0.77675250  0.32837725  0.19821550  1.0
  O  O48  1  0.77675250  0.32837725  0.69821550  1.0
  O  O48  1  0.77675250  0.82837725  0.19821550  1.0
  O  O48  1  0.77675250  0.82837725  0.69821550  1.0
  O  O49  1  0.27553150  0.47412300  0.00000000  1.0
  O  O49  1  0.27553150  0.47412300  0.50000000  1.0
  O  O49  1  0.27553150  0.97412300  0.00000000  1.0
  O  O49  1  0.27553150  0.97412300  0.50000000  1.0
  O  O49  1  0.77553150  0.47412300  0.00000000  1.0
  O  O49  1  0.77553150  0.47412300  0.50000000  1.0
  O  O49  1  0.77553150  0.97412300  0.00000000  1.0
  O  O49  1  0.77553150  0.97412300  0.50000000  1.0
  O  O50  1  0.40175250  0.42162275  0.07321550  1.0
  O  O50  1  0.40175250  0.42162275  0.57321550  1.0
  O  O50  1  0.40175250  0.92162275  0.07321550  1.0
  O  O50  1  0.40175250  0.92162275  0.57321550  1.0
  O  O50  1  0.90175250  0.42162275  0.07321550  1.0
  O  O50  1  0.90175250  0.42162275  0.57321550  1.0
  O  O50  1  0.90175250  0.92162275  0.07321550  1.0
  O  O50  1  0.90175250  0.92162275  0.57321550  1.0
  O  O51  1  0.27675250  0.32837725  0.30178450  1.0
  O  O51  1  0.27675250  0.32837725  0.80178450  1.0
  O  O51  1  0.27675250  0.82837725  0.30178450  1.0
  O  O51  1  0.27675250  0.82837725  0.80178450  1.0
  O  O51  1  0.77675250  0.32837725  0.30178450  1.0
  O  O51  1  0.77675250  0.32837725  0.80178450  1.0
  O  O51  1  0.77675250  0.82837725  0.30178450  1.0
  O  O51  1  0.77675250  0.82837725  0.80178450  1.0
  O  O52  1  0.42129775  0.29540100  0.25000000  1.0
  O  O52  1  0.42129775  0.29540100  0.75000000  1.0
  O  O52  1  0.42129775  0.79540100  0.25000000  1.0
  O  O52  1  0.42129775  0.79540100  0.75000000  1.0
  O  O52  1  0.92129775  0.29540100  0.25000000  1.0
  O  O52  1  0.92129775  0.29540100  0.75000000  1.0
  O  O52  1  0.92129775  0.79540100  0.25000000  1.0
  O  O52  1  0.92129775  0.79540100  0.75000000  1.0
  O  O53  1  0.40175250  0.42162275  0.42678450  1.0
  O  O53  1  0.40175250  0.42162275  0.92678450  1.0
  O  O53  1  0.40175250  0.92162275  0.42678450  1.0
  O  O53  1  0.40175250  0.92162275  0.92678450  1.0
  O  O53  1  0.90175250  0.42162275  0.42678450  1.0
  O  O53  1  0.90175250  0.42162275  0.92678450  1.0
  O  O53  1  0.90175250  0.92162275  0.42678450  1.0
  O  O53  1  0.90175250  0.92162275  0.92678450  1.0
  O  O54  1  0.27675250  0.32837725  0.44821550  1.0
  O  O54  1  0.27675250  0.32837725  0.94821550  1.0
  O  O54  1  0.27675250  0.82837725  0.44821550  1.0
  O  O54  1  0.27675250  0.82837725  0.94821550  1.0
  O  O54  1  0.77675250  0.32837725  0.44821550  1.0
  O  O54  1  0.77675250  0.32837725  0.94821550  1.0
  O  O54  1  0.77675250  0.82837725  0.44821550  1.0
  O  O54  1  0.77675250  0.82837725  0.94821550  1.0
  O  O55  1  0.27553150  0.47412300  0.25000000  1.0
  O  O55  1  0.27553150  0.47412300  0.75000000  1.0
  O  O55  1  0.27553150  0.97412300  0.25000000  1.0
  O  O55  1  0.27553150  0.97412300  0.75000000  1.0
  O  O55  1  0.77553150  0.47412300  0.25000000  1.0
  O  O55  1  0.77553150  0.47412300  0.75000000  1.0
  O  O55  1  0.77553150  0.97412300  0.25000000  1.0
  O  O55  1  0.77553150  0.97412300  0.75000000  1.0
  O  O56  1  0.40175250  0.42162275  0.32321550  1.0
  O  O56  1  0.40175250  0.42162275  0.82321550  1.0
  O  O56  1  0.40175250  0.92162275  0.32321550  1.0
  O  O56  1  0.40175250  0.92162275  0.82321550  1.0
  O  O56  1  0.90175250  0.42162275  0.32321550  1.0
  O  O56  1  0.90175250  0.42162275  0.82321550  1.0
  O  O56  1  0.90175250  0.92162275  0.32321550  1.0
  O  O56  1  0.90175250  0.92162275  0.82321550  1.0
