# generated using pymatgen
data_Fe2O3
_symmetry_space_group_name_H-M   'P 1'
_cell_length_a   20.36760820
_cell_length_b   20.36760820
_cell_length_c   27.54859530
_cell_angle_alpha   90.00000000
_cell_angle_beta   90.00000000
_cell_angle_gamma   120.00000000
_symmetry_Int_Tables_number   1
_chemical_formula_structural   Fe2O3
_chemical_formula_sum   'Fe384 O576'
_cell_volume   9897.15005972
_cell_formula_units_Z   192
loop_
 _symmetry_equiv_pos_site_id
 _symmetry_equiv_pos_as_xyz
  1  'x, y, z'
loop_
 _atom_type_symbol
 _atom_type_oxidation_number
  Fe3+  3.0
  O2-  -2.0
loop_
 _atom_site_type_symbol
 _atom_site_label
 _atom_site_symmetry_multiplicity
 _atom_site_fract_x
 _atom_site_fract_y
 _atom_site_fract_z
 _atom_site_occupancy
  Fe3+  Fe0  1  0.08333333  0.16666667  0.26074475  1.0
  Fe3+  Fe0  1  0.08333333  0.16666667  0.76074475  1.0
  Fe3+  Fe0  1  0.08333333  0.41666667  0.26074475  1.0
  Fe3+  Fe0  1  0.08333333  0.41666667  0.76074475  1.0
  Fe3+  Fe0  1  0.08333333  0.66666667  0.26074475  1.0
  Fe3+  Fe0  1  0.08333333  0.66666667  0.76074475  1.0
  Fe3+  Fe0  1  0.08333333  0.91666667  0.26074475  1.0
  Fe3+  Fe0  1  0.08333333  0.91666667  0.76074475  1.0
  Fe3+  Fe0  1  0.33333333  0.16666667  0.26074475  1.0
  Fe3+  Fe0  1  0.33333333  0.16666667  0.76074475  1.0
  Fe3+  Fe0  1  0.33333333  0.41666667  0.26074475  1.0
  Fe3+  Fe0  1  0.33333333  0.41666667  0.76074475  1.0
  Fe3+  Fe0  1  0.33333333  0.66666667  0.26074475  1.0
  Fe3+  Fe0  1  0.33333333  0.66666667  0.76074475  1.0
  Fe3+  Fe0  1  0.33333333  0.91666667  0.26074475  1.0
  Fe3+  Fe0  1  0.33333333  0.91666667  0.76074475  1.0
  Fe3+  Fe0  1  0.58333333  0.16666667  0.26074475  1.0
  Fe3+  Fe0  1  0.58333333  0.16666667  0.76074475  1.0
  Fe3+  Fe0  1  0.58333333  0.41666667  0.26074475  1.0
  Fe3+  Fe0  1  0.58333333  0.41666667  0.76074475  1.0
  Fe3+  Fe0  1  0.58333333  0.66666667  0.26074475  1.0
  Fe3+  Fe0  1  0.58333333  0.66666667  0.76074475  1.0
  Fe3+  Fe0  1  0.58333333  0.91666667  0.26074475  1.0
  Fe3+  Fe0  1  0.58333333  0.91666667  0.76074475  1.0
  Fe3+  Fe0  1  0.83333333  0.16666667  0.26074475  1.0
  Fe3+  Fe0  1  0.83333333  0.16666667  0.76074475  1.0
  Fe3+  Fe0  1  0.83333333  0.41666667  0.26074475  1.0
  Fe3+  Fe0  1  0.83333333  0.41666667  0.76074475  1.0
  Fe3+  Fe0  1  0.83333333  0.66666667  0.26074475  1.0
  Fe3+  Fe0  1  0.83333333  0.66666667  0.76074475  1.0
  Fe3+  Fe0  1  0.83333333  0.91666667  0.26074475  1.0
  Fe3+  Fe0  1  0.83333333  0.91666667  0.76074475  1.0
  Fe3+  Fe1  1  0.00000000  0.00000000  0.32258859  1.0
  Fe3+  Fe1  1  0.00000000  0.00000000  0.82258859  1.0
  Fe3+  Fe1  1  0.00000000  0.25000000  0.32258859  1.0
  Fe3+  Fe1  1  0.00000000  0.25000000  0.82258859  1.0
  Fe3+  Fe1  1  0.00000000  0.50000000  0.32258859  1.0
  Fe3+  Fe1  1  0.00000000  0.50000000  0.82258859  1.0
  Fe3+  Fe1  1  0.00000000  0.75000000  0.32258859  1.0
  Fe3+  Fe1  1  0.00000000  0.75000000  0.82258859  1.0
  Fe3+  Fe1  1  0.25000000  0.00000000  0.32258859  1.0
  Fe3+  Fe1  1  0.25000000  0.00000000  0.82258859  1.0
  Fe3+  Fe1  1  0.25000000  0.25000000  0.32258859  1.0
  Fe3+  Fe1  1  0.25000000  0.25000000  0.82258859  1.0
  Fe3+  Fe1  1  0.25000000  0.50000000  0.32258859  1.0
  Fe3+  Fe1  1  0.25000000  0.50000000  0.82258859  1.0
  Fe3+  Fe1  1  0.25000000  0.75000000  0.32258859  1.0
  Fe3+  Fe1  1  0.25000000  0.75000000  0.82258859  1.0
  Fe3+  Fe1  1  0.50000000  0.00000000  0.32258859  1.0
  Fe3+  Fe1  1  0.50000000  0.00000000  0.82258859  1.0
  Fe3+  Fe1  1  0.50000000  0.25000000  0.32258859  1.0
  Fe3+  Fe1  1  0.50000000  0.25000000  0.82258859  1.0
  Fe3+  Fe1  1  0.50000000  0.50000000  0.32258859  1.0
  Fe3+  Fe1  1  0.50000000  0.50000000  0.82258859  1.0
  Fe3+  Fe1  1  0.50000000  0.75000000  0.32258859  1.0
  Fe3+  Fe1  1  0.50000000  0.75000000  0.82258858  1.0
  Fe3+  Fe1  1  0.75000000  0.00000000  0.32258859  1.0
  Fe3+  Fe1  1  0.75000000  0.00000000  0.82258859  1.0
  Fe3+  Fe1  1  0.75000000  0.25000000  0.32258859  1.0
  Fe3+  Fe1  1  0.75000000  0.25000000  0.82258859  1.0
  Fe3+  Fe1  1  0.75000000  0.50000000  0.32258859  1.0
  Fe3+  Fe1  1  0.75000000  0.50000000  0.82258858  1.0
  Fe3+  Fe1  1  0.75000000  0.75000000  0.32258859  1.0
  Fe3+  Fe1  1  0.75000000  0.75000000  0.82258858  1.0
  Fe3+  Fe2  1  0.08333333  0.16666667  0.40592192  1.0
  Fe3+  Fe2  1  0.08333333  0.16666667  0.90592192  1.0
  Fe3+  Fe2  1  0.08333333  0.41666667  0.40592192  1.0
  Fe3+  Fe2  1  0.08333333  0.41666667  0.90592192  1.0
  Fe3+  Fe2  1  0.08333333  0.66666667  0.40592192  1.0
  Fe3+  Fe2  1  0.08333333  0.66666667  0.90592192  1.0
  Fe3+  Fe2  1  0.08333333  0.91666667  0.40592192  1.0
  Fe3+  Fe2  1  0.08333333  0.91666667  0.90592192  1.0
  Fe3+  Fe2  1  0.33333333  0.16666667  0.40592192  1.0
  Fe3+  Fe2  1  0.33333333  0.16666667  0.90592192  1.0
  Fe3+  Fe2  1  0.33333333  0.41666667  0.40592192  1.0
  Fe3+  Fe2  1  0.33333333  0.41666667  0.90592192  1.0
  Fe3+  Fe2  1  0.33333333  0.66666667  0.40592192  1.0
  Fe3+  Fe2  1  0.33333333  0.66666667  0.90592192  1.0
  Fe3+  Fe2  1  0.33333333  0.91666667  0.40592192  1.0
  Fe3+  Fe2  1  0.33333333  0.91666667  0.90592192  1.0
  Fe3+  Fe2  1  0.58333333  0.16666667  0.40592192  1.0
  Fe3+  Fe2  1  0.58333333  0.16666667  0.90592192  1.0
  Fe3+  Fe2  1  0.58333333  0.41666667  0.40592192  1.0
  Fe3+  Fe2  1  0.58333333  0.41666667  0.90592192  1.0
  Fe3+  Fe2  1  0.58333333  0.66666667  0.40592192  1.0
  Fe3+  Fe2  1  0.58333333  0.66666667  0.90592192  1.0
  Fe3+  Fe2  1  0.58333333  0.91666667  0.40592192  1.0
  Fe3+  Fe2  1  0.58333333  0.91666667  0.90592192  1.0
  Fe3+  Fe2  1  0.83333333  0.16666667  0.40592192  1.0
  Fe3+  Fe2  1  0.83333333  0.16666667  0.90592192  1.0
  Fe3+  Fe2  1  0.83333333  0.41666667  0.40592192  1.0
  Fe3+  Fe2  1  0.83333333  0.41666667  0.90592192  1.0
  Fe3+  Fe2  1  0.83333333  0.66666667  0.40592192  1.0
  Fe3+  Fe2  1  0.83333333  0.66666667  0.90592192  1.0
  Fe3+  Fe2  1  0.83333333  0.91666667  0.40592192  1.0
  Fe3+  Fe2  1  0.83333333  0.91666667  0.90592192  1.0
  Fe3+  Fe3  1  0.16666667  0.08333333  0.34407808  1.0
  Fe3+  Fe3  1  0.16666667  0.08333333  0.84407808  1.0
  Fe3+  Fe3  1  0.16666667  0.33333333  0.34407808  1.0
  Fe3+  Fe3  1  0.16666667  0.33333333  0.84407808  1.0
  Fe3+  Fe3  1  0.16666667  0.58333333  0.34407808  1.0
  Fe3+  Fe3  1  0.16666667  0.58333333  0.84407808  1.0
  Fe3+  Fe3  1  0.16666667  0.83333333  0.34407808  1.0
  Fe3+  Fe3  1  0.16666667  0.83333333  0.84407808  1.0
  Fe3+  Fe3  1  0.41666667  0.08333333  0.34407808  1.0
  Fe3+  Fe3  1  0.41666667  0.08333333  0.84407808  1.0
  Fe3+  Fe3  1  0.41666667  0.33333333  0.34407808  1.0
  Fe3+  Fe3  1  0.41666667  0.33333333  0.84407808  1.0
  Fe3+  Fe3  1  0.41666667  0.58333333  0.34407808  1.0
  Fe3+  Fe3  1  0.41666667  0.58333333  0.84407808  1.0
  Fe3+  Fe3  1  0.41666667  0.83333333  0.34407808  1.0
  Fe3+  Fe3  1  0.41666667  0.83333333  0.84407808  1.0
  Fe3+  Fe3  1  0.66666667  0.08333333  0.34407808  1.0
  Fe3+  Fe3  1  0.66666667  0.08333333  0.84407808  1.0
  Fe3+  Fe3  1  0.66666667  0.33333333  0.34407808  1.0
  Fe3+  Fe3  1  0.66666667  0.33333333  0.84407808  1.0
  Fe3+  Fe3  1  0.66666667  0.58333333  0.34407808  1.0
  Fe3+  Fe3  1  0.66666667  0.58333333  0.84407808  1.0
  Fe3+  Fe3  1  0.66666667  0.83333333  0.34407808  1.0
  Fe3+  Fe3  1  0.66666667  0.83333333  0.84407808  1.0
  Fe3+  Fe3  1  0.91666667  0.08333333  0.34407808  1.0
  Fe3+  Fe3  1  0.91666667  0.08333333  0.84407808  1.0
  Fe3+  Fe3  1  0.91666667  0.33333333  0.34407808  1.0
  Fe3+  Fe3  1  0.91666667  0.33333333  0.84407808  1.0
  Fe3+  Fe3  1  0.91666667  0.58333333  0.34407808  1.0
  Fe3+  Fe3  1  0.91666667  0.58333333  0.84407808  1.0
  Fe3+  Fe3  1  0.91666667  0.83333333  0.34407808  1.0
  Fe3+  Fe3  1  0.91666667  0.83333333  0.84407808  1.0
  Fe3+  Fe4  1  0.00000000  0.00000000  0.42741142  1.0
  Fe3+  Fe4  1  0.00000000  0.00000000  0.92741142  1.0
  Fe3+  Fe4  1  0.00000000  0.25000000  0.42741142  1.0
  Fe3+  Fe4  1  0.00000000  0.25000000  0.92741142  1.0
  Fe3+  Fe4  1  0.00000000  0.50000000  0.42741142  1.0
  Fe3+  Fe4  1  0.00000000  0.50000000  0.92741142  1.0
  Fe3+  Fe4  1  0.00000000  0.75000000  0.42741142  1.0
  Fe3+  Fe4  1  0.00000000  0.75000000  0.92741142  1.0
  Fe3+  Fe4  1  0.25000000  0.00000000  0.42741142  1.0
  Fe3+  Fe4  1  0.25000000  0.00000000  0.92741142  1.0
  Fe3+  Fe4  1  0.25000000  0.25000000  0.42741142  1.0
  Fe3+  Fe4  1  0.25000000  0.25000000  0.92741142  1.0
  Fe3+  Fe4  1  0.25000000  0.50000000  0.42741142  1.0
  Fe3+  Fe4  1  0.25000000  0.50000000  0.92741142  1.0
  Fe3+  Fe4  1  0.25000000  0.75000000  0.42741142  1.0
  Fe3+  Fe4  1  0.25000000  0.75000000  0.92741142  1.0
  Fe3+  Fe4  1  0.50000000  0.00000000  0.42741142  1.0
  Fe3+  Fe4  1  0.50000000  0.00000000  0.92741142  1.0
  Fe3+  Fe4  1  0.50000000  0.25000000  0.42741142  1.0
  Fe3+  Fe4  1  0.50000000  0.25000000  0.92741142  1.0
  Fe3+  Fe4  1  0.50000000  0.50000000  0.42741142  1.0
  Fe3+  Fe4  1  0.50000000  0.50000000  0.92741142  1.0
  Fe3+  Fe4  1  0.50000000  0.75000000  0.42741142  1.0
  Fe3+  Fe4  1  0.50000000  0.75000000  0.92741141  1.0
  Fe3+  Fe4  1  0.75000000  0.00000000  0.42741142  1.0
  Fe3+  Fe4  1  0.75000000  0.00000000  0.92741142  1.0
  Fe3+  Fe4  1  0.75000000  0.25000000  0.42741142  1.0
  Fe3+  Fe4  1  0.75000000  0.25000000  0.92741142  1.0
  Fe3+  Fe4  1  0.75000000  0.50000000  0.42741142  1.0
  Fe3+  Fe4  1  0.75000000  0.50000000  0.92741141  1.0
  Fe3+  Fe4  1  0.75000000  0.75000000  0.42741142  1.0
  Fe3+  Fe4  1  0.75000000  0.75000000  0.92741141  1.0
  Fe3+  Fe5  1  0.16666667  0.08333333  0.48925525  1.0
  Fe3+  Fe5  1  0.16666667  0.08333333  0.98925525  1.0
  Fe3+  Fe5  1  0.16666667  0.33333333  0.48925525  1.0
  Fe3+  Fe5  1  0.16666667  0.33333333  0.98925525  1.0
  Fe3+  Fe5  1  0.16666667  0.58333333  0.48925525  1.0
  Fe3+  Fe5  1  0.16666667  0.58333333  0.98925525  1.0
  Fe3+  Fe5  1  0.16666667  0.83333333  0.48925525  1.0
  Fe3+  Fe5  1  0.16666667  0.83333333  0.98925525  1.0
  Fe3+  Fe5  1  0.41666667  0.08333333  0.48925525  1.0
  Fe3+  Fe5  1  0.41666667  0.08333333  0.98925525  1.0
  Fe3+  Fe5  1  0.41666667  0.33333333  0.48925525  1.0
  Fe3+  Fe5  1  0.41666667  0.33333333  0.98925525  1.0
  Fe3+  Fe5  1  0.41666667  0.58333333  0.48925525  1.0
  Fe3+  Fe5  1  0.41666667  0.58333333  0.98925525  1.0
  Fe3+  Fe5  1  0.41666667  0.83333333  0.48925525  1.0
  Fe3+  Fe5  1  0.41666667  0.83333333  0.98925525  1.0
  Fe3+  Fe5  1  0.66666667  0.08333333  0.48925525  1.0
  Fe3+  Fe5  1  0.66666667  0.08333333  0.98925525  1.0
  Fe3+  Fe5  1  0.66666667  0.33333333  0.48925525  1.0
  Fe3+  Fe5  1  0.66666667  0.33333333  0.98925525  1.0
  Fe3+  Fe5  1  0.66666667  0.58333333  0.48925525  1.0
  Fe3+  Fe5  1  0.66666667  0.58333333  0.98925525  1.0
  Fe3+  Fe5  1  0.66666667  0.83333333  0.48925525  1.0
  Fe3+  Fe5  1  0.66666667  0.83333333  0.98925525  1.0
  Fe3+  Fe5  1  0.91666667  0.08333333  0.48925525  1.0
  Fe3+  Fe5  1  0.91666667  0.08333333  0.98925525  1.0
  Fe3+  Fe5  1  0.91666667  0.33333333  0.48925525  1.0
  Fe3+  Fe5  1  0.91666667  0.33333333  0.98925525  1.0
  Fe3+  Fe5  1  0.91666667  0.58333333  0.48925525  1.0
  Fe3+  Fe5  1  0.91666667  0.58333333  0.98925525  1.0
  Fe3+  Fe5  1  0.91666667  0.83333333  0.48925525  1.0
  Fe3+  Fe5  1  0.91666667  0.83333333  0.98925525  1.0
  Fe3+  Fe6  1  0.00000000  0.00000000  0.07258858  1.0
  Fe3+  Fe6  1  0.00000000  0.00000000  0.57258858  1.0
  Fe3+  Fe6  1  0.00000000  0.25000000  0.07258858  1.0
  Fe3+  Fe6  1  0.00000000  0.25000000  0.57258858  1.0
  Fe3+  Fe6  1  0.00000000  0.50000000  0.07258858  1.0
  Fe3+  Fe6  1  0.00000000  0.50000000  0.57258858  1.0
  Fe3+  Fe6  1  0.00000000  0.75000000  0.07258858  1.0
  Fe3+  Fe6  1  0.00000000  0.75000000  0.57258859  1.0
  Fe3+  Fe6  1  0.25000000  0.00000000  0.07258858  1.0
  Fe3+  Fe6  1  0.25000000  0.00000000  0.57258858  1.0
  Fe3+  Fe6  1  0.25000000  0.25000000  0.07258858  1.0
  Fe3+  Fe6  1  0.25000000  0.25000000  0.57258858  1.0
  Fe3+  Fe6  1  0.25000000  0.50000000  0.07258858  1.0
  Fe3+  Fe6  1  0.25000000  0.50000000  0.57258859  1.0
  Fe3+  Fe6  1  0.25000000  0.75000000  0.07258858  1.0
  Fe3+  Fe6  1  0.25000000  0.75000000  0.57258859  1.0
  Fe3+  Fe6  1  0.50000000  0.00000000  0.07258858  1.0
  Fe3+  Fe6  1  0.50000000  0.00000000  0.57258858  1.0
  Fe3+  Fe6  1  0.50000000  0.25000000  0.07258858  1.0
  Fe3+  Fe6  1  0.50000000  0.25000000  0.57258859  1.0
  Fe3+  Fe6  1  0.50000000  0.50000000  0.07258858  1.0
  Fe3+  Fe6  1  0.50000000  0.50000000  0.57258859  1.0
  Fe3+  Fe6  1  0.50000000  0.75000000  0.07258858  1.0
  Fe3+  Fe6  1  0.50000000  0.75000000  0.57258858  1.0
  Fe3+  Fe6  1  0.75000000  0.00000000  0.07258858  1.0
  Fe3+  Fe6  1  0.75000000  0.00000000  0.57258859  1.0
  Fe3+  Fe6  1  0.75000000  0.25000000  0.07258858  1.0
  Fe3+  Fe6  1  0.75000000  0.25000000  0.57258859  1.0
  Fe3+  Fe6  1  0.75000000  0.50000000  0.07258858  1.0
  Fe3+  Fe6  1  0.75000000  0.50000000  0.57258858  1.0
  Fe3+  Fe6  1  0.75000000  0.75000000  0.07258858  1.0
  Fe3+  Fe6  1  0.75000000  0.75000000  0.57258858  1.0
  Fe3+  Fe7  1  0.08333333  0.16666667  0.01074475  1.0
  Fe3+  Fe7  1  0.08333333  0.16666667  0.51074475  1.0
  Fe3+  Fe7  1  0.08333333  0.41666667  0.01074475  1.0
  Fe3+  Fe7  1  0.08333333  0.41666667  0.51074475  1.0
  Fe3+  Fe7  1  0.08333333  0.66666667  0.01074475  1.0
  Fe3+  Fe7  1  0.08333333  0.66666667  0.51074475  1.0
  Fe3+  Fe7  1  0.08333333  0.91666667  0.01074475  1.0
  Fe3+  Fe7  1  0.08333333  0.91666667  0.51074475  1.0
  Fe3+  Fe7  1  0.33333333  0.16666667  0.01074475  1.0
  Fe3+  Fe7  1  0.33333333  0.16666667  0.51074475  1.0
  Fe3+  Fe7  1  0.33333333  0.41666667  0.01074475  1.0
  Fe3+  Fe7  1  0.33333333  0.41666667  0.51074475  1.0
  Fe3+  Fe7  1  0.33333333  0.66666667  0.01074475  1.0
  Fe3+  Fe7  1  0.33333333  0.66666667  0.51074475  1.0
  Fe3+  Fe7  1  0.33333333  0.91666667  0.01074475  1.0
  Fe3+  Fe7  1  0.33333333  0.91666667  0.51074475  1.0
  Fe3+  Fe7  1  0.58333333  0.16666667  0.01074475  1.0
  Fe3+  Fe7  1  0.58333333  0.16666667  0.51074475  1.0
  Fe3+  Fe7  1  0.58333333  0.41666667  0.01074475  1.0
  Fe3+  Fe7  1  0.58333333  0.41666667  0.51074475  1.0
  Fe3+  Fe7  1  0.58333333  0.66666667  0.01074475  1.0
  Fe3+  Fe7  1  0.58333333  0.66666667  0.51074475  1.0
  Fe3+  Fe7  1  0.58333333  0.91666667  0.01074475  1.0
  Fe3+  Fe7  1  0.58333333  0.91666667  0.51074475  1.0
  Fe3+  Fe7  1  0.83333333  0.16666667  0.01074475  1.0
  Fe3+  Fe7  1  0.83333333  0.16666667  0.51074475  1.0
  Fe3+  Fe7  1  0.83333333  0.41666667  0.01074475  1.0
  Fe3+  Fe7  1  0.83333333  0.41666667  0.51074475  1.0
  Fe3+  Fe7  1  0.83333333  0.66666667  0.01074475  1.0
  Fe3+  Fe7  1  0.83333333  0.66666667  0.51074475  1.0
  Fe3+  Fe7  1  0.83333333  0.91666667  0.01074475  1.0
  Fe3+  Fe7  1  0.83333333  0.91666667  0.51074475  1.0
  Fe3+  Fe8  1  0.16666667  0.08333333  0.09407808  1.0
  Fe3+  Fe8  1  0.16666667  0.08333333  0.59407808  1.0
  Fe3+  Fe8  1  0.16666667  0.33333333  0.09407808  1.0
  Fe3+  Fe8  1  0.16666667  0.33333333  0.59407808  1.0
  Fe3+  Fe8  1  0.16666667  0.58333333  0.09407808  1.0
  Fe3+  Fe8  1  0.16666667  0.58333333  0.59407808  1.0
  Fe3+  Fe8  1  0.16666667  0.83333333  0.09407808  1.0
  Fe3+  Fe8  1  0.16666667  0.83333333  0.59407808  1.0
  Fe3+  Fe8  1  0.41666667  0.08333333  0.09407808  1.0
  Fe3+  Fe8  1  0.41666667  0.08333333  0.59407808  1.0
  Fe3+  Fe8  1  0.41666667  0.33333333  0.09407808  1.0
  Fe3+  Fe8  1  0.41666667  0.33333333  0.59407808  1.0
  Fe3+  Fe8  1  0.41666667  0.58333333  0.09407808  1.0
  Fe3+  Fe8  1  0.41666667  0.58333333  0.59407808  1.0
  Fe3+  Fe8  1  0.41666667  0.83333333  0.09407808  1.0
  Fe3+  Fe8  1  0.41666667  0.83333333  0.59407808  1.0
  Fe3+  Fe8  1  0.66666667  0.08333333  0.09407808  1.0
  Fe3+  Fe8  1  0.66666667  0.08333333  0.59407808  1.0
  Fe3+  Fe8  1  0.66666667  0.33333333  0.09407808  1.0
  Fe3+  Fe8  1  0.66666667  0.33333333  0.59407808  1.0
  Fe3+  Fe8  1  0.66666667  0.58333333  0.09407808  1.0
  Fe3+  Fe8  1  0.66666667  0.58333333  0.59407808  1.0
  Fe3+  Fe8  1  0.66666667  0.83333333  0.09407808  1.0
  Fe3+  Fe8  1  0.66666667  0.83333333  0.59407808  1.0
  Fe3+  Fe8  1  0.91666667  0.08333333  0.09407808  1.0
  Fe3+  Fe8  1  0.91666667  0.08333333  0.59407808  1.0
  Fe3+  Fe8  1  0.91666667  0.33333333  0.09407808  1.0
  Fe3+  Fe8  1  0.91666667  0.33333333  0.59407808  1.0
  Fe3+  Fe8  1  0.91666667  0.58333333  0.09407808  1.0
  Fe3+  Fe8  1  0.91666667  0.58333333  0.59407808  1.0
  Fe3+  Fe8  1  0.91666667  0.83333333  0.09407808  1.0
  Fe3+  Fe8  1  0.91666667  0.83333333  0.59407808  1.0
  Fe3+  Fe9  1  0.08333333  0.16666667  0.15592192  1.0
  Fe3+  Fe9  1  0.08333333  0.16666667  0.65592192  1.0
  Fe3+  Fe9  1  0.08333333  0.41666667  0.15592192  1.0
  Fe3+  Fe9  1  0.08333333  0.41666667  0.65592192  1.0
  Fe3+  Fe9  1  0.08333333  0.66666667  0.15592192  1.0
  Fe3+  Fe9  1  0.08333333  0.66666667  0.65592192  1.0
  Fe3+  Fe9  1  0.08333333  0.91666667  0.15592192  1.0
  Fe3+  Fe9  1  0.08333333  0.91666667  0.65592192  1.0
  Fe3+  Fe9  1  0.33333333  0.16666667  0.15592192  1.0
  Fe3+  Fe9  1  0.33333333  0.16666667  0.65592192  1.0
  Fe3+  Fe9  1  0.33333333  0.41666667  0.15592192  1.0
  Fe3+  Fe9  1  0.33333333  0.41666667  0.65592192  1.0
  Fe3+  Fe9  1  0.33333333  0.66666667  0.15592192  1.0
  Fe3+  Fe9  1  0.33333333  0.66666667  0.65592192  1.0
  Fe3+  Fe9  1  0.33333333  0.91666667  0.15592192  1.0
  Fe3+  Fe9  1  0.33333333  0.91666667  0.65592192  1.0
  Fe3+  Fe9  1  0.58333333  0.16666667  0.15592192  1.0
  Fe3+  Fe9  1  0.58333333  0.16666667  0.65592192  1.0
  Fe3+  Fe9  1  0.58333333  0.41666667  0.15592192  1.0
  Fe3+  Fe9  1  0.58333333  0.41666667  0.65592192  1.0
  Fe3+  Fe9  1  0.58333333  0.66666667  0.15592192  1.0
  Fe3+  Fe9  1  0.58333333  0.66666667  0.65592192  1.0
  Fe3+  Fe9  1  0.58333333  0.91666667  0.15592192  1.0
  Fe3+  Fe9  1  0.58333333  0.91666667  0.65592192  1.0
  Fe3+  Fe9  1  0.83333333  0.16666667  0.15592192  1.0
  Fe3+  Fe9  1  0.83333333  0.16666667  0.65592192  1.0
  Fe3+  Fe9  1  0.83333333  0.41666667  0.15592192  1.0
  Fe3+  Fe9  1  0.83333333  0.41666667  0.65592192  1.0
  Fe3+  Fe9  1  0.83333333  0.66666667  0.15592192  1.0
  Fe3+  Fe9  1  0.83333333  0.66666667  0.65592192  1.0
  Fe3+  Fe9  1  0.83333333  0.91666667  0.15592192  1.0
  Fe3+  Fe9  1  0.83333333  0.91666667  0.65592192  1.0
  Fe3+  Fe10  1  0.16666667  0.08333333  0.23925525  1.0
  Fe3+  Fe10  1  0.16666667  0.08333333  0.73925525  1.0
  Fe3+  Fe10  1  0.16666667  0.33333333  0.23925525  1.0
  Fe3+  Fe10  1  0.16666667  0.33333333  0.73925525  1.0
  Fe3+  Fe10  1  0.16666667  0.58333333  0.23925525  1.0
  Fe3+  Fe10  1  0.16666667  0.58333333  0.73925525  1.0
  Fe3+  Fe10  1  0.16666667  0.83333333  0.23925525  1.0
  Fe3+  Fe10  1  0.16666667  0.83333333  0.73925525  1.0
  Fe3+  Fe10  1  0.41666667  0.08333333  0.23925525  1.0
  Fe3+  Fe10  1  0.41666667  0.08333333  0.73925525  1.0
  Fe3+  Fe10  1  0.41666667  0.33333333  0.23925525  1.0
  Fe3+  Fe10  1  0.41666667  0.33333333  0.73925525  1.0
  Fe3+  Fe10  1  0.41666667  0.58333333  0.23925525  1.0
  Fe3+  Fe10  1  0.41666667  0.58333333  0.73925525  1.0
  Fe3+  Fe10  1  0.41666667  0.83333333  0.23925525  1.0
  Fe3+  Fe10  1  0.41666667  0.83333333  0.73925525  1.0
  Fe3+  Fe10  1  0.66666667  0.08333333  0.23925525  1.0
  Fe3+  Fe10  1  0.66666667  0.08333333  0.73925525  1.0
  Fe3+  Fe10  1  0.66666667  0.33333333  0.23925525  1.0
  Fe3+  Fe10  1  0.66666667  0.33333333  0.73925525  1.0
  Fe3+  Fe10  1  0.66666667  0.58333333  0.23925525  1.0
  Fe3+  Fe10  1  0.66666667  0.58333333  0.73925525  1.0
  Fe3+  Fe10  1  0.66666667  0.83333333  0.23925525  1.0
  Fe3+  Fe10  1  0.66666667  0.83333333  0.73925525  1.0
  Fe3+  Fe10  1  0.91666667  0.08333333  0.23925525  1.0
  Fe3+  Fe10  1  0.91666667  0.08333333  0.73925525  1.0
  Fe3+  Fe10  1  0.91666667  0.33333333  0.23925525  1.0
  Fe3+  Fe10  1  0.91666667  0.33333333  0.73925525  1.0
  Fe3+  Fe10  1  0.91666667  0.58333333  0.23925525  1.0
  Fe3+  Fe10  1  0.91666667  0.58333333  0.73925525  1.0
  Fe3+  Fe10  1  0.91666667  0.83333333  0.23925525  1.0
  Fe3+  Fe10  1  0.91666667  0.83333333  0.73925525  1.0
  Fe3+  Fe11  1  0.00000000  0.00000000  0.17741141  1.0
  Fe3+  Fe11  1  0.00000000  0.00000000  0.67741142  1.0
  Fe3+  Fe11  1  0.00000000  0.25000000  0.17741141  1.0
  Fe3+  Fe11  1  0.00000000  0.25000000  0.67741142  1.0
  Fe3+  Fe11  1  0.00000000  0.50000000  0.17741141  1.0
  Fe3+  Fe11  1  0.00000000  0.50000000  0.67741142  1.0
  Fe3+  Fe11  1  0.00000000  0.75000000  0.17741141  1.0
  Fe3+  Fe11  1  0.00000000  0.75000000  0.67741142  1.0
  Fe3+  Fe11  1  0.25000000  0.00000000  0.17741141  1.0
  Fe3+  Fe11  1  0.25000000  0.00000000  0.67741142  1.0
  Fe3+  Fe11  1  0.25000000  0.25000000  0.17741141  1.0
  Fe3+  Fe11  1  0.25000000  0.25000000  0.67741142  1.0
  Fe3+  Fe11  1  0.25000000  0.50000000  0.17741141  1.0
  Fe3+  Fe11  1  0.25000000  0.50000000  0.67741142  1.0
  Fe3+  Fe11  1  0.25000000  0.75000000  0.17741141  1.0
  Fe3+  Fe11  1  0.25000000  0.75000000  0.67741142  1.0
  Fe3+  Fe11  1  0.50000000  0.00000000  0.17741141  1.0
  Fe3+  Fe11  1  0.50000000  0.00000000  0.67741142  1.0
  Fe3+  Fe11  1  0.50000000  0.25000000  0.17741141  1.0
  Fe3+  Fe11  1  0.50000000  0.25000000  0.67741142  1.0
  Fe3+  Fe11  1  0.50000000  0.50000000  0.17741141  1.0
  Fe3+  Fe11  1  0.50000000  0.50000000  0.67741142  1.0
  Fe3+  Fe11  1  0.50000000  0.75000000  0.17741142  1.0
  Fe3+  Fe11  1  0.50000000  0.75000000  0.67741142  1.0
  Fe3+  Fe11  1  0.75000000  0.00000000  0.17741141  1.0
  Fe3+  Fe11  1  0.75000000  0.00000000  0.67741142  1.0
  Fe3+  Fe11  1  0.75000000  0.25000000  0.17741141  1.0
  Fe3+  Fe11  1  0.75000000  0.25000000  0.67741142  1.0
  Fe3+  Fe11  1  0.75000000  0.50000000  0.17741142  1.0
  Fe3+  Fe11  1  0.75000000  0.50000000  0.67741142  1.0
  Fe3+  Fe11  1  0.75000000  0.75000000  0.17741142  1.0
  Fe3+  Fe11  1  0.75000000  0.75000000  0.67741142  1.0
  O2-  O12  1  0.17364978  0.17364978  0.37500000  1.0
  O2-  O12  1  0.17364978  0.17364978  0.87500000  1.0
  O2-  O12  1  0.17364977  0.42364977  0.37500000  1.0
  O2-  O12  1  0.17364977  0.42364977  0.87500000  1.0
  O2-  O12  1  0.17364977  0.67364978  0.37500000  1.0
  O2-  O12  1  0.17364977  0.67364978  0.87500000  1.0
  O2-  O12  1  0.17364978  0.92364978  0.37500000  1.0
  O2-  O12  1  0.17364978  0.92364978  0.87500000  1.0
  O2-  O12  1  0.42364977  0.17364978  0.37500000  1.0
  O2-  O12  1  0.42364977  0.17364978  0.87500000  1.0
  O2-  O12  1  0.42364978  0.42364977  0.37500000  1.0
  O2-  O12  1  0.42364978  0.42364977  0.87500000  1.0
  O2-  O12  1  0.42364977  0.67364978  0.37500000  1.0
  O2-  O12  1  0.42364977  0.67364978  0.87500000  1.0
  O2-  O12  1  0.42364977  0.92364978  0.37500000  1.0
  O2-  O12  1  0.42364977  0.92364978  0.87500000  1.0
  O2-  O12  1  0.67364978  0.17364978  0.37500000  1.0
  O2-  O12  1  0.67364978  0.17364978  0.87500000  1.0
  O2-  O12  1  0.67364978  0.42364977  0.37500000  1.0
  O2-  O12  1  0.67364978  0.42364977  0.87500000  1.0
  O2-  O12  1  0.67364977  0.67364978  0.37500000  1.0
  O2-  O12  1  0.67364977  0.67364978  0.87500000  1.0
  O2-  O12  1  0.67364978  0.92364978  0.37500000  1.0
  O2-  O12  1  0.67364978  0.92364978  0.87500000  1.0
  O2-  O12  1  0.92364978  0.17364978  0.37500000  1.0
  O2-  O12  1  0.92364978  0.17364978  0.87500000  1.0
  O2-  O12  1  0.92364977  0.42364977  0.37500000  1.0
  O2-  O12  1  0.92364977  0.42364977  0.87500000  1.0
  O2-  O12  1  0.92364977  0.67364978  0.37500000  1.0
  O2-  O12  1  0.92364977  0.67364978  0.87500000  1.0
  O2-  O12  1  0.92364978  0.92364978  0.37500000  1.0
  O2-  O12  1  0.92364978  0.92364978  0.87500000  1.0
  O2-  O13  1  0.07635022  0.00000000  0.37500000  1.0
  O2-  O13  1  0.07635022  0.00000000  0.87500000  1.0
  O2-  O13  1  0.07635022  0.25000000  0.37500000  1.0
  O2-  O13  1  0.07635022  0.25000000  0.87500000  1.0
  O2-  O13  1  0.07635022  0.50000000  0.37500000  1.0
  O2-  O13  1  0.07635022  0.50000000  0.87500000  1.0
  O2-  O13  1  0.07635023  0.75000000  0.37500000  1.0
  O2-  O13  1  0.07635023  0.75000000  0.87500000  1.0
  O2-  O13  1  0.32635022  0.00000000  0.37500000  1.0
  O2-  O13  1  0.32635022  0.00000000  0.87500000  1.0
  O2-  O13  1  0.32635022  0.25000000  0.37500000  1.0
  O2-  O13  1  0.32635022  0.25000000  0.87500000  1.0
  O2-  O13  1  0.32635022  0.50000000  0.37500000  1.0
  O2-  O13  1  0.32635022  0.50000000  0.87500000  1.0
  O2-  O13  1  0.32635022  0.75000000  0.37500000  1.0
  O2-  O13  1  0.32635022  0.75000000  0.87500000  1.0
  O2-  O13  1  0.57635022  0.00000000  0.37500000  1.0
  O2-  O13  1  0.57635022  0.00000000  0.87500000  1.0
  O2-  O13  1  0.57635022  0.25000000  0.37500000  1.0
  O2-  O13  1  0.57635022  0.25000000  0.87500000  1.0
  O2-  O13  1  0.57635022  0.50000000  0.37500000  1.0
  O2-  O13  1  0.57635022  0.50000000  0.87500000  1.0
  O2-  O13  1  0.57635022  0.75000000  0.37500000  1.0
  O2-  O13  1  0.57635022  0.75000000  0.87500000  1.0
  O2-  O13  1  0.82635022  0.00000000  0.37500000  1.0
  O2-  O13  1  0.82635022  0.00000000  0.87500000  1.0
  O2-  O13  1  0.82635022  0.25000000  0.37500000  1.0
  O2-  O13  1  0.82635022  0.25000000  0.87500000  1.0
  O2-  O13  1  0.82635022  0.50000000  0.37500000  1.0
  O2-  O13  1  0.82635022  0.50000000  0.87500000  1.0
  O2-  O13  1  0.82635022  0.75000000  0.37500000  1.0
  O2-  O13  1  0.82635022  0.75000000  0.87500000  1.0
  O2-  O14  1  0.16666667  0.00698311  0.29166666  1.0
  O2-  O14  1  0.16666667  0.00698311  0.79166667  1.0
  O2-  O14  1  0.16666667  0.25698311  0.29166666  1.0
  O2-  O14  1  0.16666667  0.25698311  0.79166667  1.0
  O2-  O14  1  0.16666667  0.50698311  0.29166666  1.0
  O2-  O14  1  0.16666667  0.50698311  0.79166667  1.0
  O2-  O14  1  0.16666667  0.75698311  0.29166666  1.0
  O2-  O14  1  0.16666667  0.75698311  0.79166667  1.0
  O2-  O14  1  0.41666667  0.00698311  0.29166666  1.0
  O2-  O14  1  0.41666667  0.00698311  0.79166667  1.0
  O2-  O14  1  0.41666667  0.25698311  0.29166666  1.0
  O2-  O14  1  0.41666667  0.25698311  0.79166667  1.0
  O2-  O14  1  0.41666667  0.50698311  0.29166666  1.0
  O2-  O14  1  0.41666667  0.50698311  0.79166667  1.0
  O2-  O14  1  0.41666667  0.75698311  0.29166666  1.0
  O2-  O14  1  0.41666667  0.75698311  0.79166667  1.0
  O2-  O14  1  0.66666667  0.00698311  0.29166666  1.0
  O2-  O14  1  0.66666667  0.00698311  0.79166667  1.0
  O2-  O14  1  0.66666667  0.25698311  0.29166666  1.0
  O2-  O14  1  0.66666667  0.25698311  0.79166667  1.0
  O2-  O14  1  0.66666667  0.50698311  0.29166666  1.0
  O2-  O14  1  0.66666667  0.50698311  0.79166667  1.0
  O2-  O14  1  0.66666667  0.75698311  0.29166666  1.0
  O2-  O14  1  0.66666667  0.75698311  0.79166666  1.0
  O2-  O14  1  0.91666667  0.00698311  0.29166666  1.0
  O2-  O14  1  0.91666667  0.00698311  0.79166667  1.0
  O2-  O14  1  0.91666667  0.25698311  0.29166666  1.0
  O2-  O14  1  0.91666667  0.25698311  0.79166667  1.0
  O2-  O14  1  0.91666667  0.50698311  0.29166666  1.0
  O2-  O14  1  0.91666667  0.50698311  0.79166666  1.0
  O2-  O14  1  0.91666667  0.75698311  0.29166666  1.0
  O2-  O14  1  0.91666667  0.75698311  0.79166666  1.0
  O2-  O15  1  0.09031644  0.08333333  0.29166666  1.0
  O2-  O15  1  0.09031644  0.08333333  0.79166667  1.0
  O2-  O15  1  0.09031644  0.33333333  0.29166666  1.0
  O2-  O15  1  0.09031644  0.33333333  0.79166667  1.0
  O2-  O15  1  0.09031644  0.58333333  0.29166666  1.0
  O2-  O15  1  0.09031644  0.58333333  0.79166667  1.0
  O2-  O15  1  0.09031644  0.83333333  0.29166666  1.0
  O2-  O15  1  0.09031644  0.83333333  0.79166667  1.0
  O2-  O15  1  0.34031644  0.08333333  0.29166666  1.0
  O2-  O15  1  0.34031644  0.08333333  0.79166667  1.0
  O2-  O15  1  0.34031644  0.33333333  0.29166666  1.0
  O2-  O15  1  0.34031644  0.33333333  0.79166667  1.0
  O2-  O15  1  0.34031644  0.58333333  0.29166666  1.0
  O2-  O15  1  0.34031644  0.58333333  0.79166667  1.0
  O2-  O15  1  0.34031644  0.83333333  0.29166666  1.0
  O2-  O15  1  0.34031644  0.83333333  0.79166667  1.0
  O2-  O15  1  0.59031644  0.08333333  0.29166666  1.0
  O2-  O15  1  0.59031644  0.08333333  0.79166667  1.0
  O2-  O15  1  0.59031644  0.33333333  0.29166666  1.0
  O2-  O15  1  0.59031644  0.33333333  0.79166667  1.0
  O2-  O15  1  0.59031644  0.58333333  0.29166666  1.0
  O2-  O15  1  0.59031644  0.58333333  0.79166667  1.0
  O2-  O15  1  0.59031644  0.83333333  0.29166666  1.0
  O2-  O15  1  0.59031644  0.83333333  0.79166666  1.0
  O2-  O15  1  0.84031644  0.08333333  0.29166666  1.0
  O2-  O15  1  0.84031644  0.08333333  0.79166667  1.0
  O2-  O15  1  0.84031644  0.33333333  0.29166666  1.0
  O2-  O15  1  0.84031644  0.33333333  0.79166667  1.0
  O2-  O15  1  0.84031644  0.58333333  0.29166666  1.0
  O2-  O15  1  0.84031644  0.58333333  0.79166666  1.0
  O2-  O15  1  0.84031644  0.83333333  0.29166666  1.0
  O2-  O15  1  0.84031644  0.83333333  0.79166666  1.0
  O2-  O16  1  0.24301689  0.15968356  0.29166666  1.0
  O2-  O16  1  0.24301689  0.15968356  0.79166667  1.0
  O2-  O16  1  0.24301689  0.40968356  0.29166666  1.0
  O2-  O16  1  0.24301689  0.40968356  0.79166667  1.0
  O2-  O16  1  0.24301689  0.65968356  0.29166666  1.0
  O2-  O16  1  0.24301689  0.65968356  0.79166667  1.0
  O2-  O16  1  0.24301689  0.90968356  0.29166666  1.0
  O2-  O16  1  0.24301689  0.90968356  0.79166667  1.0
  O2-  O16  1  0.49301689  0.15968356  0.29166666  1.0
  O2-  O16  1  0.49301689  0.15968356  0.79166667  1.0
  O2-  O16  1  0.49301689  0.40968356  0.29166666  1.0
  O2-  O16  1  0.49301689  0.40968356  0.79166667  1.0
  O2-  O16  1  0.49301689  0.65968356  0.29166666  1.0
  O2-  O16  1  0.49301689  0.65968356  0.79166667  1.0
  O2-  O16  1  0.49301689  0.90968356  0.29166666  1.0
  O2-  O16  1  0.49301689  0.90968356  0.79166666  1.0
  O2-  O16  1  0.74301689  0.15968356  0.29166666  1.0
  O2-  O16  1  0.74301689  0.15968356  0.79166667  1.0
  O2-  O16  1  0.74301689  0.40968356  0.29166666  1.0
  O2-  O16  1  0.74301689  0.40968356  0.79166667  1.0
  O2-  O16  1  0.74301689  0.65968356  0.29166666  1.0
  O2-  O16  1  0.74301689  0.65968356  0.79166666  1.0
  O2-  O16  1  0.74301689  0.90968356  0.29166666  1.0
  O2-  O16  1  0.74301689  0.90968356  0.79166666  1.0
  O2-  O16  1  0.99301689  0.15968356  0.29166666  1.0
  O2-  O16  1  0.99301689  0.15968356  0.79166667  1.0
  O2-  O16  1  0.99301689  0.40968356  0.29166666  1.0
  O2-  O16  1  0.99301689  0.40968356  0.79166666  1.0
  O2-  O16  1  0.99301689  0.65968356  0.29166666  1.0
  O2-  O16  1  0.99301689  0.65968356  0.79166666  1.0
  O2-  O16  1  0.99301689  0.90968356  0.29166666  1.0
  O2-  O16  1  0.99301689  0.90968356  0.79166666  1.0
  O2-  O17  1  0.00000000  0.07635022  0.37500000  1.0
  O2-  O17  1  0.00000000  0.07635022  0.87500000  1.0
  O2-  O17  1  0.00000000  0.32635023  0.37500000  1.0
  O2-  O17  1  0.00000000  0.32635023  0.87500000  1.0
  O2-  O17  1  0.00000000  0.57635022  0.37500000  1.0
  O2-  O17  1  0.00000000  0.57635022  0.87500000  1.0
  O2-  O17  1  0.00000000  0.82635022  0.37500000  1.0
  O2-  O17  1  0.00000000  0.82635022  0.87500000  1.0
  O2-  O17  1  0.25000000  0.07635022  0.37500000  1.0
  O2-  O17  1  0.25000000  0.07635022  0.87500000  1.0
  O2-  O17  1  0.25000000  0.32635023  0.37500000  1.0
  O2-  O17  1  0.25000000  0.32635023  0.87500000  1.0
  O2-  O17  1  0.25000000  0.57635022  0.37500000  1.0
  O2-  O17  1  0.25000000  0.57635022  0.87500000  1.0
  O2-  O17  1  0.25000000  0.82635022  0.37500000  1.0
  O2-  O17  1  0.25000000  0.82635022  0.87500000  1.0
  O2-  O17  1  0.50000000  0.07635022  0.37500000  1.0
  O2-  O17  1  0.50000000  0.07635022  0.87500000  1.0
  O2-  O17  1  0.50000000  0.32635023  0.37500000  1.0
  O2-  O17  1  0.50000000  0.32635023  0.87500000  1.0
  O2-  O17  1  0.50000000  0.57635022  0.37500000  1.0
  O2-  O17  1  0.50000000  0.57635022  0.87500000  1.0
  O2-  O17  1  0.50000000  0.82635022  0.37500000  1.0
  O2-  O17  1  0.50000000  0.82635022  0.87500000  1.0
  O2-  O17  1  0.75000000  0.07635022  0.37500000  1.0
  O2-  O17  1  0.75000000  0.07635022  0.87500000  1.0
  O2-  O17  1  0.75000000  0.32635023  0.37500000  1.0
  O2-  O17  1  0.75000000  0.32635023  0.87500000  1.0
  O2-  O17  1  0.75000000  0.57635022  0.37500000  1.0
  O2-  O17  1  0.75000000  0.57635022  0.87500000  1.0
  O2-  O17  1  0.75000000  0.82635022  0.37500000  1.0
  O2-  O17  1  0.75000000  0.82635022  0.87500000  1.0
  O2-  O18  1  0.09031644  0.00698311  0.04166666  1.0
  O2-  O18  1  0.09031644  0.00698311  0.54166667  1.0
  O2-  O18  1  0.09031644  0.25698311  0.04166667  1.0
  O2-  O18  1  0.09031644  0.25698311  0.54166667  1.0
  O2-  O18  1  0.09031644  0.50698311  0.04166667  1.0
  O2-  O18  1  0.09031644  0.50698311  0.54166667  1.0
  O2-  O18  1  0.09031644  0.75698311  0.04166666  1.0
  O2-  O18  1  0.09031644  0.75698311  0.54166667  1.0
  O2-  O18  1  0.34031644  0.00698311  0.04166667  1.0
  O2-  O18  1  0.34031644  0.00698311  0.54166667  1.0
  O2-  O18  1  0.34031644  0.25698311  0.04166667  1.0
  O2-  O18  1  0.34031644  0.25698311  0.54166667  1.0
  O2-  O18  1  0.34031644  0.50698311  0.04166666  1.0
  O2-  O18  1  0.34031644  0.50698311  0.54166667  1.0
  O2-  O18  1  0.34031644  0.75698311  0.04166667  1.0
  O2-  O18  1  0.34031644  0.75698311  0.54166667  1.0
  O2-  O18  1  0.59031644  0.00698311  0.04166667  1.0
  O2-  O18  1  0.59031644  0.00698311  0.54166667  1.0
  O2-  O18  1  0.59031644  0.25698311  0.04166666  1.0
  O2-  O18  1  0.59031644  0.25698311  0.54166667  1.0
  O2-  O18  1  0.59031644  0.50698311  0.04166667  1.0
  O2-  O18  1  0.59031644  0.50698311  0.54166667  1.0
  O2-  O18  1  0.59031644  0.75698311  0.04166667  1.0
  O2-  O18  1  0.59031644  0.75698311  0.54166667  1.0
  O2-  O18  1  0.84031644  0.00698311  0.04166666  1.0
  O2-  O18  1  0.84031644  0.00698311  0.54166667  1.0
  O2-  O18  1  0.84031644  0.25698311  0.04166667  1.0
  O2-  O18  1  0.84031644  0.25698311  0.54166667  1.0
  O2-  O18  1  0.84031644  0.50698311  0.04166667  1.0
  O2-  O18  1  0.84031644  0.50698311  0.54166667  1.0
  O2-  O18  1  0.84031644  0.75698311  0.04166667  1.0
  O2-  O18  1  0.84031644  0.75698311  0.54166667  1.0
  O2-  O19  1  0.24301689  0.08333333  0.04166667  1.0
  O2-  O19  1  0.24301689  0.08333333  0.54166667  1.0
  O2-  O19  1  0.24301689  0.33333333  0.04166666  1.0
  O2-  O19  1  0.24301689  0.33333333  0.54166667  1.0
  O2-  O19  1  0.24301689  0.58333333  0.04166667  1.0
  O2-  O19  1  0.24301689  0.58333333  0.54166667  1.0
  O2-  O19  1  0.24301689  0.83333333  0.04166666  1.0
  O2-  O19  1  0.24301689  0.83333333  0.54166667  1.0
  O2-  O19  1  0.49301689  0.08333333  0.04166666  1.0
  O2-  O19  1  0.49301689  0.08333333  0.54166667  1.0
  O2-  O19  1  0.49301689  0.33333333  0.04166667  1.0
  O2-  O19  1  0.49301689  0.33333333  0.54166667  1.0
  O2-  O19  1  0.49301689  0.58333333  0.04166666  1.0
  O2-  O19  1  0.49301689  0.58333333  0.54166667  1.0
  O2-  O19  1  0.49301689  0.83333333  0.04166667  1.0
  O2-  O19  1  0.49301689  0.83333333  0.54166667  1.0
  O2-  O19  1  0.74301689  0.08333333  0.04166667  1.0
  O2-  O19  1  0.74301689  0.08333333  0.54166667  1.0
  O2-  O19  1  0.74301689  0.33333333  0.04166666  1.0
  O2-  O19  1  0.74301689  0.33333333  0.54166667  1.0
  O2-  O19  1  0.74301689  0.58333333  0.04166667  1.0
  O2-  O19  1  0.74301689  0.58333333  0.54166667  1.0
  O2-  O19  1  0.74301689  0.83333333  0.04166667  1.0
  O2-  O19  1  0.74301689  0.83333333  0.54166667  1.0
  O2-  O19  1  0.99301689  0.08333333  0.04166666  1.0
  O2-  O19  1  0.99301689  0.08333333  0.54166667  1.0
  O2-  O19  1  0.99301689  0.33333333  0.04166667  1.0
  O2-  O19  1  0.99301689  0.33333333  0.54166667  1.0
  O2-  O19  1  0.99301689  0.58333333  0.04166667  1.0
  O2-  O19  1  0.99301689  0.58333333  0.54166667  1.0
  O2-  O19  1  0.99301689  0.83333333  0.04166666  1.0
  O2-  O19  1  0.99301689  0.83333333  0.54166667  1.0
  O2-  O20  1  0.08333333  0.09031644  0.45833334  1.0
  O2-  O20  1  0.08333333  0.09031644  0.95833334  1.0
  O2-  O20  1  0.08333333  0.34031644  0.45833334  1.0
  O2-  O20  1  0.08333333  0.34031644  0.95833334  1.0
  O2-  O20  1  0.08333333  0.59031644  0.45833334  1.0
  O2-  O20  1  0.08333333  0.59031644  0.95833334  1.0
  O2-  O20  1  0.08333333  0.84031644  0.45833334  1.0
  O2-  O20  1  0.08333333  0.84031644  0.95833334  1.0
  O2-  O20  1  0.33333333  0.09031644  0.45833334  1.0
  O2-  O20  1  0.33333333  0.09031644  0.95833334  1.0
  O2-  O20  1  0.33333333  0.34031644  0.45833334  1.0
  O2-  O20  1  0.33333333  0.34031644  0.95833334  1.0
  O2-  O20  1  0.33333333  0.59031644  0.45833334  1.0
  O2-  O20  1  0.33333333  0.59031644  0.95833334  1.0
  O2-  O20  1  0.33333333  0.84031644  0.45833334  1.0
  O2-  O20  1  0.33333333  0.84031644  0.95833334  1.0
  O2-  O20  1  0.58333333  0.09031644  0.45833334  1.0
  O2-  O20  1  0.58333333  0.09031644  0.95833334  1.0
  O2-  O20  1  0.58333333  0.34031644  0.45833334  1.0
  O2-  O20  1  0.58333333  0.34031644  0.95833334  1.0
  O2-  O20  1  0.58333333  0.59031644  0.45833334  1.0
  O2-  O20  1  0.58333333  0.59031644  0.95833334  1.0
  O2-  O20  1  0.58333333  0.84031644  0.45833334  1.0
  O2-  O20  1  0.58333333  0.84031644  0.95833334  1.0
  O2-  O20  1  0.83333333  0.09031644  0.45833334  1.0
  O2-  O20  1  0.83333333  0.09031644  0.95833334  1.0
  O2-  O20  1  0.83333333  0.34031644  0.45833334  1.0
  O2-  O20  1  0.83333333  0.34031644  0.95833334  1.0
  O2-  O20  1  0.83333333  0.59031644  0.45833334  1.0
  O2-  O20  1  0.83333333  0.59031644  0.95833334  1.0
  O2-  O20  1  0.83333333  0.84031644  0.45833334  1.0
  O2-  O20  1  0.83333333  0.84031644  0.95833334  1.0
  O2-  O21  1  0.00698311  0.16666667  0.45833334  1.0
  O2-  O21  1  0.00698311  0.16666667  0.95833334  1.0
  O2-  O21  1  0.00698311  0.41666667  0.45833334  1.0
  O2-  O21  1  0.00698311  0.41666667  0.95833334  1.0
  O2-  O21  1  0.00698311  0.66666667  0.45833334  1.0
  O2-  O21  1  0.00698311  0.66666667  0.95833334  1.0
  O2-  O21  1  0.00698311  0.91666667  0.45833334  1.0
  O2-  O21  1  0.00698311  0.91666667  0.95833334  1.0
  O2-  O21  1  0.25698311  0.16666667  0.45833334  1.0
  O2-  O21  1  0.25698311  0.16666667  0.95833334  1.0
  O2-  O21  1  0.25698311  0.41666667  0.45833334  1.0
  O2-  O21  1  0.25698311  0.41666667  0.95833334  1.0
  O2-  O21  1  0.25698311  0.66666667  0.45833334  1.0
  O2-  O21  1  0.25698311  0.66666667  0.95833334  1.0
  O2-  O21  1  0.25698311  0.91666667  0.45833334  1.0
  O2-  O21  1  0.25698311  0.91666667  0.95833334  1.0
  O2-  O21  1  0.50698311  0.16666667  0.45833334  1.0
  O2-  O21  1  0.50698311  0.16666667  0.95833334  1.0
  O2-  O21  1  0.50698311  0.41666667  0.45833334  1.0
  O2-  O21  1  0.50698311  0.41666667  0.95833334  1.0
  O2-  O21  1  0.50698311  0.66666667  0.45833334  1.0
  O2-  O21  1  0.50698311  0.66666667  0.95833334  1.0
  O2-  O21  1  0.50698311  0.91666667  0.45833334  1.0
  O2-  O21  1  0.50698311  0.91666667  0.95833334  1.0
  O2-  O21  1  0.75698311  0.16666667  0.45833334  1.0
  O2-  O21  1  0.75698311  0.16666667  0.95833334  1.0
  O2-  O21  1  0.75698311  0.41666667  0.45833334  1.0
  O2-  O21  1  0.75698311  0.41666667  0.95833334  1.0
  O2-  O21  1  0.75698311  0.66666667  0.45833334  1.0
  O2-  O21  1  0.75698311  0.66666667  0.95833334  1.0
  O2-  O21  1  0.75698311  0.91666667  0.45833334  1.0
  O2-  O21  1  0.75698311  0.91666667  0.95833334  1.0
  O2-  O22  1  0.15968356  0.24301689  0.45833334  1.0
  O2-  O22  1  0.15968356  0.24301689  0.95833334  1.0
  O2-  O22  1  0.15968356  0.49301689  0.45833334  1.0
  O2-  O22  1  0.15968356  0.49301689  0.95833334  1.0
  O2-  O22  1  0.15968356  0.74301689  0.45833334  1.0
  O2-  O22  1  0.15968356  0.74301689  0.95833334  1.0
  O2-  O22  1  0.15968356  0.99301689  0.45833334  1.0
  O2-  O22  1  0.15968356  0.99301689  0.95833334  1.0
  O2-  O22  1  0.40968356  0.24301689  0.45833334  1.0
  O2-  O22  1  0.40968356  0.24301689  0.95833334  1.0
  O2-  O22  1  0.40968356  0.49301689  0.45833334  1.0
  O2-  O22  1  0.40968356  0.49301689  0.95833334  1.0
  O2-  O22  1  0.40968356  0.74301689  0.45833334  1.0
  O2-  O22  1  0.40968356  0.74301689  0.95833334  1.0
  O2-  O22  1  0.40968356  0.99301689  0.45833334  1.0
  O2-  O22  1  0.40968356  0.99301689  0.95833334  1.0
  O2-  O22  1  0.65968356  0.24301689  0.45833334  1.0
  O2-  O22  1  0.65968356  0.24301689  0.95833334  1.0
  O2-  O22  1  0.65968356  0.49301689  0.45833334  1.0
  O2-  O22  1  0.65968356  0.49301689  0.95833334  1.0
  O2-  O22  1  0.65968356  0.74301689  0.45833334  1.0
  O2-  O22  1  0.65968356  0.74301689  0.95833334  1.0
  O2-  O22  1  0.65968356  0.99301689  0.45833334  1.0
  O2-  O22  1  0.65968356  0.99301689  0.95833334  1.0
  O2-  O22  1  0.90968356  0.24301689  0.45833334  1.0
  O2-  O22  1  0.90968356  0.24301689  0.95833334  1.0
  O2-  O22  1  0.90968356  0.49301689  0.45833334  1.0
  O2-  O22  1  0.90968356  0.49301689  0.95833334  1.0
  O2-  O22  1  0.90968356  0.74301689  0.45833334  1.0
  O2-  O22  1  0.90968356  0.74301689  0.95833334  1.0
  O2-  O22  1  0.90968356  0.99301689  0.45833334  1.0
  O2-  O22  1  0.90968356  0.99301689  0.95833334  1.0
  O2-  O23  1  0.16666667  0.15968356  0.04166667  1.0
  O2-  O23  1  0.16666667  0.15968356  0.54166667  1.0
  O2-  O23  1  0.16666667  0.40968356  0.04166666  1.0
  O2-  O23  1  0.16666667  0.40968356  0.54166667  1.0
  O2-  O23  1  0.16666667  0.65968356  0.04166667  1.0
  O2-  O23  1  0.16666667  0.65968356  0.54166667  1.0
  O2-  O23  1  0.16666667  0.90968356  0.04166666  1.0
  O2-  O23  1  0.16666667  0.90968356  0.54166667  1.0
  O2-  O23  1  0.41666667  0.15968356  0.04166666  1.0
  O2-  O23  1  0.41666667  0.15968356  0.54166667  1.0
  O2-  O23  1  0.41666667  0.40968356  0.04166667  1.0
  O2-  O23  1  0.41666667  0.40968356  0.54166667  1.0
  O2-  O23  1  0.41666667  0.65968356  0.04166666  1.0
  O2-  O23  1  0.41666667  0.65968356  0.54166667  1.0
  O2-  O23  1  0.41666667  0.90968356  0.04166667  1.0
  O2-  O23  1  0.41666667  0.90968356  0.54166667  1.0
  O2-  O23  1  0.66666667  0.15968356  0.04166667  1.0
  O2-  O23  1  0.66666667  0.15968356  0.54166667  1.0
  O2-  O23  1  0.66666667  0.40968356  0.04166666  1.0
  O2-  O23  1  0.66666667  0.40968356  0.54166667  1.0
  O2-  O23  1  0.66666667  0.65968356  0.04166667  1.0
  O2-  O23  1  0.66666667  0.65968356  0.54166667  1.0
  O2-  O23  1  0.66666667  0.90968356  0.04166667  1.0
  O2-  O23  1  0.66666667  0.90968356  0.54166667  1.0
  O2-  O23  1  0.91666667  0.15968356  0.04166666  1.0
  O2-  O23  1  0.91666667  0.15968356  0.54166667  1.0
  O2-  O23  1  0.91666667  0.40968356  0.04166667  1.0
  O2-  O23  1  0.91666667  0.40968356  0.54166667  1.0
  O2-  O23  1  0.91666667  0.65968356  0.04166667  1.0
  O2-  O23  1  0.91666667  0.65968356  0.54166667  1.0
  O2-  O23  1  0.91666667  0.90968356  0.04166666  1.0
  O2-  O23  1  0.91666667  0.90968356  0.54166667  1.0
  O2-  O24  1  0.00698311  0.09031644  0.20833334  1.0
  O2-  O24  1  0.00698311  0.09031644  0.70833333  1.0
  O2-  O24  1  0.00698311  0.34031644  0.20833333  1.0
  O2-  O24  1  0.00698311  0.34031644  0.70833333  1.0
  O2-  O24  1  0.00698311  0.59031644  0.20833334  1.0
  O2-  O24  1  0.00698311  0.59031644  0.70833333  1.0
  O2-  O24  1  0.00698311  0.84031644  0.20833334  1.0
  O2-  O24  1  0.00698311  0.84031644  0.70833334  1.0
  O2-  O24  1  0.25698311  0.09031644  0.20833333  1.0
  O2-  O24  1  0.25698311  0.09031644  0.70833333  1.0
  O2-  O24  1  0.25698311  0.34031644  0.20833334  1.0
  O2-  O24  1  0.25698311  0.34031644  0.70833333  1.0
  O2-  O24  1  0.25698311  0.59031644  0.20833334  1.0
  O2-  O24  1  0.25698311  0.59031644  0.70833334  1.0
  O2-  O24  1  0.25698311  0.84031644  0.20833333  1.0
  O2-  O24  1  0.25698311  0.84031644  0.70833334  1.0
  O2-  O24  1  0.50698311  0.09031644  0.20833334  1.0
  O2-  O24  1  0.50698311  0.09031644  0.70833333  1.0
  O2-  O24  1  0.50698311  0.34031644  0.20833334  1.0
  O2-  O24  1  0.50698311  0.34031644  0.70833334  1.0
  O2-  O24  1  0.50698311  0.59031644  0.20833333  1.0
  O2-  O24  1  0.50698311  0.59031644  0.70833334  1.0
  O2-  O24  1  0.50698311  0.84031644  0.20833334  1.0
  O2-  O24  1  0.50698311  0.84031644  0.70833333  1.0
  O2-  O24  1  0.75698311  0.09031644  0.20833334  1.0
  O2-  O24  1  0.75698311  0.09031644  0.70833334  1.0
  O2-  O24  1  0.75698311  0.34031644  0.20833333  1.0
  O2-  O24  1  0.75698311  0.34031644  0.70833334  1.0
  O2-  O24  1  0.75698311  0.59031644  0.20833334  1.0
  O2-  O24  1  0.75698311  0.59031644  0.70833333  1.0
  O2-  O24  1  0.75698311  0.84031644  0.20833333  1.0
  O2-  O24  1  0.75698311  0.84031644  0.70833333  1.0
  O2-  O25  1  0.15968356  0.16666667  0.20833333  1.0
  O2-  O25  1  0.15968356  0.16666667  0.70833333  1.0
  O2-  O25  1  0.15968356  0.41666667  0.20833333  1.0
  O2-  O25  1  0.15968356  0.41666667  0.70833333  1.0
  O2-  O25  1  0.15968356  0.66666667  0.20833334  1.0
  O2-  O25  1  0.15968356  0.66666667  0.70833333  1.0
  O2-  O25  1  0.15968356  0.91666667  0.20833333  1.0
  O2-  O25  1  0.15968356  0.91666667  0.70833334  1.0
  O2-  O25  1  0.40968356  0.16666667  0.20833333  1.0
  O2-  O25  1  0.40968356  0.16666667  0.70833333  1.0
  O2-  O25  1  0.40968356  0.41666667  0.20833334  1.0
  O2-  O25  1  0.40968356  0.41666667  0.70833333  1.0
  O2-  O25  1  0.40968356  0.66666667  0.20833333  1.0
  O2-  O25  1  0.40968356  0.66666667  0.70833334  1.0
  O2-  O25  1  0.40968356  0.91666667  0.20833333  1.0
  O2-  O25  1  0.40968356  0.91666667  0.70833333  1.0
  O2-  O25  1  0.65968356  0.16666667  0.20833334  1.0
  O2-  O25  1  0.65968356  0.16666667  0.70833333  1.0
  O2-  O25  1  0.65968356  0.41666667  0.20833333  1.0
  O2-  O25  1  0.65968356  0.41666667  0.70833334  1.0
  O2-  O25  1  0.65968356  0.66666667  0.20833333  1.0
  O2-  O25  1  0.65968356  0.66666667  0.70833333  1.0
  O2-  O25  1  0.65968356  0.91666667  0.20833333  1.0
  O2-  O25  1  0.65968356  0.91666667  0.70833333  1.0
  O2-  O25  1  0.90968356  0.16666667  0.20833333  1.0
  O2-  O25  1  0.90968356  0.16666667  0.70833334  1.0
  O2-  O25  1  0.90968356  0.41666667  0.20833333  1.0
  O2-  O25  1  0.90968356  0.41666667  0.70833333  1.0
  O2-  O25  1  0.90968356  0.66666667  0.20833333  1.0
  O2-  O25  1  0.90968356  0.66666667  0.70833333  1.0
  O2-  O25  1  0.90968356  0.91666667  0.20833333  1.0
  O2-  O25  1  0.90968356  0.91666667  0.70833333  1.0
  O2-  O26  1  0.00000000  0.17364977  0.12500000  1.0
  O2-  O26  1  0.00000000  0.17364977  0.62500000  1.0
  O2-  O26  1  0.00000000  0.42364977  0.12500000  1.0
  O2-  O26  1  0.00000000  0.42364977  0.62500000  1.0
  O2-  O26  1  0.00000000  0.67364977  0.12500000  1.0
  O2-  O26  1  0.00000000  0.67364977  0.62500000  1.0
  O2-  O26  1  0.00000000  0.92364977  0.12500000  1.0
  O2-  O26  1  0.00000000  0.92364977  0.62500000  1.0
  O2-  O26  1  0.25000000  0.17364977  0.12500000  1.0
  O2-  O26  1  0.25000000  0.17364977  0.62500000  1.0
  O2-  O26  1  0.25000000  0.42364977  0.12500000  1.0
  O2-  O26  1  0.25000000  0.42364977  0.62500000  1.0
  O2-  O26  1  0.25000000  0.67364977  0.12500000  1.0
  O2-  O26  1  0.25000000  0.67364977  0.62500000  1.0
  O2-  O26  1  0.25000000  0.92364977  0.12500000  1.0
  O2-  O26  1  0.25000000  0.92364977  0.62500000  1.0
  O2-  O26  1  0.50000000  0.17364977  0.12500000  1.0
  O2-  O26  1  0.50000000  0.17364977  0.62500000  1.0
  O2-  O26  1  0.50000000  0.42364977  0.12500000  1.0
  O2-  O26  1  0.50000000  0.42364977  0.62500000  1.0
  O2-  O26  1  0.50000000  0.67364977  0.12500000  1.0
  O2-  O26  1  0.50000000  0.67364977  0.62500000  1.0
  O2-  O26  1  0.50000000  0.92364977  0.12500000  1.0
  O2-  O26  1  0.50000000  0.92364977  0.62500000  1.0
  O2-  O26  1  0.75000000  0.17364977  0.12500000  1.0
  O2-  O26  1  0.75000000  0.17364977  0.62500000  1.0
  O2-  O26  1  0.75000000  0.42364977  0.12500000  1.0
  O2-  O26  1  0.75000000  0.42364977  0.62500000  1.0
  O2-  O26  1  0.75000000  0.67364977  0.12500000  1.0
  O2-  O26  1  0.75000000  0.67364977  0.62500000  1.0
  O2-  O26  1  0.75000000  0.92364977  0.12500000  1.0
  O2-  O26  1  0.75000000  0.92364977  0.62500000  1.0
  O2-  O27  1  0.17364977  0.00000000  0.12500000  1.0
  O2-  O27  1  0.17364977  0.00000000  0.62500000  1.0
  O2-  O27  1  0.17364977  0.25000000  0.12500000  1.0
  O2-  O27  1  0.17364977  0.25000000  0.62500000  1.0
  O2-  O27  1  0.17364977  0.50000000  0.12500000  1.0
  O2-  O27  1  0.17364977  0.50000000  0.62500000  1.0
  O2-  O27  1  0.17364977  0.75000000  0.12500000  1.0
  O2-  O27  1  0.17364977  0.75000000  0.62500000  1.0
  O2-  O27  1  0.42364977  0.00000000  0.12500000  1.0
  O2-  O27  1  0.42364977  0.00000000  0.62500000  1.0
  O2-  O27  1  0.42364977  0.25000000  0.12500000  1.0
  O2-  O27  1  0.42364977  0.25000000  0.62500000  1.0
  O2-  O27  1  0.42364977  0.50000000  0.12500000  1.0
  O2-  O27  1  0.42364977  0.50000000  0.62500000  1.0
  O2-  O27  1  0.42364977  0.75000000  0.12500000  1.0
  O2-  O27  1  0.42364977  0.75000000  0.62500000  1.0
  O2-  O27  1  0.67364977  0.00000000  0.12500000  1.0
  O2-  O27  1  0.67364977  0.00000000  0.62500000  1.0
  O2-  O27  1  0.67364977  0.25000000  0.12500000  1.0
  O2-  O27  1  0.67364977  0.25000000  0.62500000  1.0
  O2-  O27  1  0.67364977  0.50000000  0.12500000  1.0
  O2-  O27  1  0.67364977  0.50000000  0.62500000  1.0
  O2-  O27  1  0.67364977  0.75000000  0.12500000  1.0
  O2-  O27  1  0.67364977  0.75000000  0.62500000  1.0
  O2-  O27  1  0.92364977  0.00000000  0.12500000  1.0
  O2-  O27  1  0.92364977  0.00000000  0.62500000  1.0
  O2-  O27  1  0.92364977  0.25000000  0.12500000  1.0
  O2-  O27  1  0.92364977  0.25000000  0.62500000  1.0
  O2-  O27  1  0.92364977  0.50000000  0.12500000  1.0
  O2-  O27  1  0.92364977  0.50000000  0.62500000  1.0
  O2-  O27  1  0.92364977  0.75000000  0.12500000  1.0
  O2-  O27  1  0.92364977  0.75000000  0.62500000  1.0
  O2-  O28  1  0.07635022  0.07635022  0.12500000  1.0
  O2-  O28  1  0.07635022  0.07635022  0.62500000  1.0
  O2-  O28  1  0.07635022  0.32635023  0.12500000  1.0
  O2-  O28  1  0.07635022  0.32635023  0.62500000  1.0
  O2-  O28  1  0.07635022  0.57635022  0.12500000  1.0
  O2-  O28  1  0.07635022  0.57635022  0.62500000  1.0
  O2-  O28  1  0.07635023  0.82635022  0.12500000  1.0
  O2-  O28  1  0.07635023  0.82635022  0.62500000  1.0
  O2-  O28  1  0.32635022  0.07635022  0.12500000  1.0
  O2-  O28  1  0.32635022  0.07635022  0.62500000  1.0
  O2-  O28  1  0.32635022  0.32635023  0.12500000  1.0
  O2-  O28  1  0.32635022  0.32635023  0.62500000  1.0
  O2-  O28  1  0.32635022  0.57635022  0.12500000  1.0
  O2-  O28  1  0.32635022  0.57635022  0.62500000  1.0
  O2-  O28  1  0.32635022  0.82635022  0.12500000  1.0
  O2-  O28  1  0.32635022  0.82635022  0.62500000  1.0
  O2-  O28  1  0.57635022  0.07635022  0.12500000  1.0
  O2-  O28  1  0.57635022  0.07635022  0.62500000  1.0
  O2-  O28  1  0.57635022  0.32635023  0.12500000  1.0
  O2-  O28  1  0.57635022  0.32635023  0.62500000  1.0
  O2-  O28  1  0.57635022  0.57635022  0.12500000  1.0
  O2-  O28  1  0.57635022  0.57635022  0.62500000  1.0
  O2-  O28  1  0.57635022  0.82635022  0.12500000  1.0
  O2-  O28  1  0.57635022  0.82635022  0.62500000  1.0
  O2-  O28  1  0.82635022  0.07635022  0.12500000  1.0
  O2-  O28  1  0.82635022  0.07635022  0.62500000  1.0
  O2-  O28  1  0.82635022  0.32635023  0.12500000  1.0
  O2-  O28  1  0.82635022  0.32635023  0.62500000  1.0
  O2-  O28  1  0.82635022  0.57635022  0.12500000  1.0
  O2-  O28  1  0.82635022  0.57635022  0.62500000  1.0
  O2-  O28  1  0.82635022  0.82635022  0.12500000  1.0
  O2-  O28  1  0.82635022  0.82635022  0.62500000  1.0
  O2-  O29  1  0.08333333  0.24301689  0.20833333  1.0
  O2-  O29  1  0.08333333  0.24301689  0.70833333  1.0
  O2-  O29  1  0.08333333  0.49301689  0.20833333  1.0
  O2-  O29  1  0.08333333  0.49301689  0.70833333  1.0
  O2-  O29  1  0.08333333  0.74301689  0.20833334  1.0
  O2-  O29  1  0.08333333  0.74301689  0.70833333  1.0
  O2-  O29  1  0.08333333  0.99301689  0.20833333  1.0
  O2-  O29  1  0.08333333  0.99301689  0.70833334  1.0
  O2-  O29  1  0.33333333  0.24301689  0.20833333  1.0
  O2-  O29  1  0.33333333  0.24301689  0.70833333  1.0
  O2-  O29  1  0.33333333  0.49301689  0.20833334  1.0
  O2-  O29  1  0.33333333  0.49301689  0.70833333  1.0
  O2-  O29  1  0.33333333  0.74301689  0.20833333  1.0
  O2-  O29  1  0.33333333  0.74301689  0.70833334  1.0
  O2-  O29  1  0.33333333  0.99301689  0.20833333  1.0
  O2-  O29  1  0.33333333  0.99301689  0.70833333  1.0
  O2-  O29  1  0.58333333  0.24301689  0.20833334  1.0
  O2-  O29  1  0.58333333  0.24301689  0.70833333  1.0
  O2-  O29  1  0.58333333  0.49301689  0.20833333  1.0
  O2-  O29  1  0.58333333  0.49301689  0.70833334  1.0
  O2-  O29  1  0.58333333  0.74301689  0.20833333  1.0
  O2-  O29  1  0.58333333  0.74301689  0.70833333  1.0
  O2-  O29  1  0.58333333  0.99301689  0.20833333  1.0
  O2-  O29  1  0.58333333  0.99301689  0.70833333  1.0
  O2-  O29  1  0.83333333  0.24301689  0.20833333  1.0
  O2-  O29  1  0.83333333  0.24301689  0.70833334  1.0
  O2-  O29  1  0.83333333  0.49301689  0.20833333  1.0
  O2-  O29  1  0.83333333  0.49301689  0.70833333  1.0
  O2-  O29  1  0.83333333  0.74301689  0.20833333  1.0
  O2-  O29  1  0.83333333  0.74301689  0.70833333  1.0
  O2-  O29  1  0.83333333  0.99301689  0.20833333  1.0
  O2-  O29  1  0.83333333  0.99301689  0.70833333  1.0
