# generated using pymatgen
data_NaTaCl6
_symmetry_space_group_name_H-M   'P 1'
_cell_length_a   40.16784000
_cell_length_b   42.62077800
_cell_length_c   39.61515848
_cell_angle_alpha   90.00000000
_cell_angle_beta   90.65650292
_cell_angle_gamma   90.00000000
_symmetry_Int_Tables_number   1
_chemical_formula_structural   NaTaCl6
_chemical_formula_sum   'Na288 Ta288 Cl1728'
_cell_volume   67816.08890891
_cell_formula_units_Z   288
loop_
 _symmetry_equiv_pos_site_id
 _symmetry_equiv_pos_as_xyz
  1  'x, y, z'
loop_
 _atom_site_type_symbol
 _atom_site_label
 _atom_site_symmetry_multiplicity
 _atom_site_fract_x
 _atom_site_fract_y
 _atom_site_fract_z
 _atom_site_occupancy
  Na  Na0  1  0.03557700  0.03152600  0.12624950  1.0
  Na  Na0  1  0.03557700  0.03152600  0.62624950  1.0
  Na  Na0  1  0.03557700  0.19819267  0.12624950  1.0
  Na  Na0  1  0.03557700  0.19819267  0.62624950  1.0
  Na  Na0  1  0.03557700  0.36485933  0.12624950  1.0
  Na  Na0  1  0.03557700  0.36485933  0.62624950  1.0
  Na  Na0  1  0.03557700  0.53152600  0.12624950  1.0
  Na  Na0  1  0.03557700  0.53152600  0.62624950  1.0
  Na  Na0  1  0.03557700  0.69819267  0.12624950  1.0
  Na  Na0  1  0.03557700  0.69819267  0.62624950  1.0
  Na  Na0  1  0.03557700  0.86485933  0.12624950  1.0
  Na  Na0  1  0.03557700  0.86485933  0.62624950  1.0
  Na  Na0  1  0.20224367  0.03152600  0.12624950  1.0
  Na  Na0  1  0.20224367  0.03152600  0.62624950  1.0
  Na  Na0  1  0.20224367  0.19819267  0.12624950  1.0
  Na  Na0  1  0.20224367  0.19819267  0.62624950  1.0
  Na  Na0  1  0.20224367  0.36485933  0.12624950  1.0
  Na  Na0  1  0.20224367  0.36485933  0.62624950  1.0
  Na  Na0  1  0.20224367  0.53152600  0.12624950  1.0
  Na  Na0  1  0.20224367  0.53152600  0.62624950  1.0
  Na  Na0  1  0.20224367  0.69819267  0.12624950  1.0
  Na  Na0  1  0.20224367  0.69819267  0.62624950  1.0
  Na  Na0  1  0.20224367  0.86485933  0.12624950  1.0
  Na  Na0  1  0.20224367  0.86485933  0.62624950  1.0
  Na  Na0  1  0.36891033  0.03152600  0.12624950  1.0
  Na  Na0  1  0.36891033  0.03152600  0.62624950  1.0
  Na  Na0  1  0.36891033  0.19819267  0.12624950  1.0
  Na  Na0  1  0.36891033  0.19819267  0.62624950  1.0
  Na  Na0  1  0.36891033  0.36485933  0.12624950  1.0
  Na  Na0  1  0.36891033  0.36485933  0.62624950  1.0
  Na  Na0  1  0.36891033  0.53152600  0.12624950  1.0
  Na  Na0  1  0.36891033  0.53152600  0.62624950  1.0
  Na  Na0  1  0.36891033  0.69819267  0.12624950  1.0
  Na  Na0  1  0.36891033  0.69819267  0.62624950  1.0
  Na  Na0  1  0.36891033  0.86485933  0.12624950  1.0
  Na  Na0  1  0.36891033  0.86485933  0.62624950  1.0
  Na  Na0  1  0.53557700  0.03152600  0.12624950  1.0
  Na  Na0  1  0.53557700  0.03152600  0.62624950  1.0
  Na  Na0  1  0.53557700  0.19819267  0.12624950  1.0
  Na  Na0  1  0.53557700  0.19819267  0.62624950  1.0
  Na  Na0  1  0.53557700  0.36485933  0.12624950  1.0
  Na  Na0  1  0.53557700  0.36485933  0.62624950  1.0
  Na  Na0  1  0.53557700  0.53152600  0.12624950  1.0
  Na  Na0  1  0.53557700  0.53152600  0.62624950  1.0
  Na  Na0  1  0.53557700  0.69819267  0.12624950  1.0
  Na  Na0  1  0.53557700  0.69819267  0.62624950  1.0
  Na  Na0  1  0.53557700  0.86485933  0.12624950  1.0
  Na  Na0  1  0.53557700  0.86485933  0.62624950  1.0
  Na  Na0  1  0.70224367  0.03152600  0.12624950  1.0
  Na  Na0  1  0.70224367  0.03152600  0.62624950  1.0
  Na  Na0  1  0.70224367  0.19819267  0.12624950  1.0
  Na  Na0  1  0.70224367  0.19819267  0.62624950  1.0
  Na  Na0  1  0.70224367  0.36485933  0.12624950  1.0
  Na  Na0  1  0.70224367  0.36485933  0.62624950  1.0
  Na  Na0  1  0.70224367  0.53152600  0.12624950  1.0
  Na  Na0  1  0.70224367  0.53152600  0.62624950  1.0
  Na  Na0  1  0.70224367  0.69819267  0.12624950  1.0
  Na  Na0  1  0.70224367  0.69819267  0.62624950  1.0
  Na  Na0  1  0.70224367  0.86485933  0.12624950  1.0
  Na  Na0  1  0.70224367  0.86485933  0.62624950  1.0
  Na  Na0  1  0.86891033  0.03152600  0.12624950  1.0
  Na  Na0  1  0.86891033  0.03152600  0.62624950  1.0
  Na  Na0  1  0.86891033  0.19819267  0.12624950  1.0
  Na  Na0  1  0.86891033  0.19819267  0.62624950  1.0
  Na  Na0  1  0.86891033  0.36485933  0.12624950  1.0
  Na  Na0  1  0.86891033  0.36485933  0.62624950  1.0
  Na  Na0  1  0.86891033  0.53152600  0.12624950  1.0
  Na  Na0  1  0.86891033  0.53152600  0.62624950  1.0
  Na  Na0  1  0.86891033  0.69819267  0.12624950  1.0
  Na  Na0  1  0.86891033  0.69819267  0.62624950  1.0
  Na  Na0  1  0.86891033  0.86485933  0.12624950  1.0
  Na  Na0  1  0.86891033  0.86485933  0.62624950  1.0
  Na  Na1  1  0.13108967  0.11485933  0.12375050  1.0
  Na  Na1  1  0.13108967  0.11485933  0.62375050  1.0
  Na  Na1  1  0.13108967  0.28152600  0.12375050  1.0
  Na  Na1  1  0.13108967  0.28152600  0.62375050  1.0
  Na  Na1  1  0.13108967  0.44819267  0.12375050  1.0
  Na  Na1  1  0.13108967  0.44819267  0.62375050  1.0
  Na  Na1  1  0.13108967  0.61485933  0.12375050  1.0
  Na  Na1  1  0.13108967  0.61485933  0.62375050  1.0
  Na  Na1  1  0.13108967  0.78152600  0.12375050  1.0
  Na  Na1  1  0.13108967  0.78152600  0.62375050  1.0
  Na  Na1  1  0.13108967  0.94819267  0.12375050  1.0
  Na  Na1  1  0.13108967  0.94819267  0.62375050  1.0
  Na  Na1  1  0.29775633  0.11485933  0.12375050  1.0
  Na  Na1  1  0.29775633  0.11485933  0.62375050  1.0
  Na  Na1  1  0.29775633  0.28152600  0.12375050  1.0
  Na  Na1  1  0.29775633  0.28152600  0.62375050  1.0
  Na  Na1  1  0.29775633  0.44819267  0.12375050  1.0
  Na  Na1  1  0.29775633  0.44819267  0.62375050  1.0
  Na  Na1  1  0.29775633  0.61485933  0.12375050  1.0
  Na  Na1  1  0.29775633  0.61485933  0.62375050  1.0
  Na  Na1  1  0.29775633  0.78152600  0.12375050  1.0
  Na  Na1  1  0.29775633  0.78152600  0.62375050  1.0
  Na  Na1  1  0.29775633  0.94819267  0.12375050  1.0
  Na  Na1  1  0.29775633  0.94819267  0.62375050  1.0
  Na  Na1  1  0.46442300  0.11485933  0.12375050  1.0
  Na  Na1  1  0.46442300  0.11485933  0.62375050  1.0
  Na  Na1  1  0.46442300  0.28152600  0.12375050  1.0
  Na  Na1  1  0.46442300  0.28152600  0.62375050  1.0
  Na  Na1  1  0.46442300  0.44819267  0.12375050  1.0
  Na  Na1  1  0.46442300  0.44819267  0.62375050  1.0
  Na  Na1  1  0.46442300  0.61485933  0.12375050  1.0
  Na  Na1  1  0.46442300  0.61485933  0.62375050  1.0
  Na  Na1  1  0.46442300  0.78152600  0.12375050  1.0
  Na  Na1  1  0.46442300  0.78152600  0.62375050  1.0
  Na  Na1  1  0.46442300  0.94819267  0.12375050  1.0
  Na  Na1  1  0.46442300  0.94819267  0.62375050  1.0
  Na  Na1  1  0.63108967  0.11485933  0.12375050  1.0
  Na  Na1  1  0.63108967  0.11485933  0.62375050  1.0
  Na  Na1  1  0.63108967  0.28152600  0.12375050  1.0
  Na  Na1  1  0.63108967  0.28152600  0.62375050  1.0
  Na  Na1  1  0.63108967  0.44819267  0.12375050  1.0
  Na  Na1  1  0.63108967  0.44819267  0.62375050  1.0
  Na  Na1  1  0.63108967  0.61485933  0.12375050  1.0
  Na  Na1  1  0.63108967  0.61485933  0.62375050  1.0
  Na  Na1  1  0.63108967  0.78152600  0.12375050  1.0
  Na  Na1  1  0.63108967  0.78152600  0.62375050  1.0
  Na  Na1  1  0.63108967  0.94819267  0.12375050  1.0
  Na  Na1  1  0.63108967  0.94819267  0.62375050  1.0
  Na  Na1  1  0.79775633  0.11485933  0.12375050  1.0
  Na  Na1  1  0.79775633  0.11485933  0.62375050  1.0
  Na  Na1  1  0.79775633  0.28152600  0.12375050  1.0
  Na  Na1  1  0.79775633  0.28152600  0.62375050  1.0
  Na  Na1  1  0.79775633  0.44819267  0.12375050  1.0
  Na  Na1  1  0.79775633  0.44819267  0.62375050  1.0
  Na  Na1  1  0.79775633  0.61485933  0.12375050  1.0
  Na  Na1  1  0.79775633  0.61485933  0.62375050  1.0
  Na  Na1  1  0.79775633  0.78152600  0.12375050  1.0
  Na  Na1  1  0.79775633  0.78152600  0.62375050  1.0
  Na  Na1  1  0.79775633  0.94819267  0.12375050  1.0
  Na  Na1  1  0.79775633  0.94819267  0.62375050  1.0
  Na  Na1  1  0.96442300  0.11485933  0.12375050  1.0
  Na  Na1  1  0.96442300  0.11485933  0.62375050  1.0
  Na  Na1  1  0.96442300  0.28152600  0.12375050  1.0
  Na  Na1  1  0.96442300  0.28152600  0.62375050  1.0
  Na  Na1  1  0.96442300  0.44819267  0.12375050  1.0
  Na  Na1  1  0.96442300  0.44819267  0.62375050  1.0
  Na  Na1  1  0.96442300  0.61485933  0.12375050  1.0
  Na  Na1  1  0.96442300  0.61485933  0.62375050  1.0
  Na  Na1  1  0.96442300  0.78152600  0.12375050  1.0
  Na  Na1  1  0.96442300  0.78152600  0.62375050  1.0
  Na  Na1  1  0.96442300  0.94819267  0.12375050  1.0
  Na  Na1  1  0.96442300  0.94819267  0.62375050  1.0
  Na  Na2  1  0.13108967  0.13514067  0.37375050  1.0
  Na  Na2  1  0.13108967  0.13514067  0.87375050  1.0
  Na  Na2  1  0.13108967  0.30180733  0.37375050  1.0
  Na  Na2  1  0.13108967  0.30180733  0.87375050  1.0
  Na  Na2  1  0.13108967  0.46847400  0.37375050  1.0
  Na  Na2  1  0.13108967  0.46847400  0.87375050  1.0
  Na  Na2  1  0.13108967  0.63514067  0.37375050  1.0
  Na  Na2  1  0.13108967  0.63514067  0.87375050  1.0
  Na  Na2  1  0.13108967  0.80180733  0.37375050  1.0
  Na  Na2  1  0.13108967  0.80180733  0.87375050  1.0
  Na  Na2  1  0.13108967  0.96847400  0.37375050  1.0
  Na  Na2  1  0.13108967  0.96847400  0.87375050  1.0
  Na  Na2  1  0.29775633  0.13514067  0.37375050  1.0
  Na  Na2  1  0.29775633  0.13514067  0.87375050  1.0
  Na  Na2  1  0.29775633  0.30180733  0.37375050  1.0
  Na  Na2  1  0.29775633  0.30180733  0.87375050  1.0
  Na  Na2  1  0.29775633  0.46847400  0.37375050  1.0
  Na  Na2  1  0.29775633  0.46847400  0.87375050  1.0
  Na  Na2  1  0.29775633  0.63514067  0.37375050  1.0
  Na  Na2  1  0.29775633  0.63514067  0.87375050  1.0
  Na  Na2  1  0.29775633  0.80180733  0.37375050  1.0
  Na  Na2  1  0.29775633  0.80180733  0.87375050  1.0
  Na  Na2  1  0.29775633  0.96847400  0.37375050  1.0
  Na  Na2  1  0.29775633  0.96847400  0.87375050  1.0
  Na  Na2  1  0.46442300  0.13514067  0.37375050  1.0
  Na  Na2  1  0.46442300  0.13514067  0.87375050  1.0
  Na  Na2  1  0.46442300  0.30180733  0.37375050  1.0
  Na  Na2  1  0.46442300  0.30180733  0.87375050  1.0
  Na  Na2  1  0.46442300  0.46847400  0.37375050  1.0
  Na  Na2  1  0.46442300  0.46847400  0.87375050  1.0
  Na  Na2  1  0.46442300  0.63514067  0.37375050  1.0
  Na  Na2  1  0.46442300  0.63514067  0.87375050  1.0
  Na  Na2  1  0.46442300  0.80180733  0.37375050  1.0
  Na  Na2  1  0.46442300  0.80180733  0.87375050  1.0
  Na  Na2  1  0.46442300  0.96847400  0.37375050  1.0
  Na  Na2  1  0.46442300  0.96847400  0.87375050  1.0
  Na  Na2  1  0.63108967  0.13514067  0.37375050  1.0
  Na  Na2  1  0.63108967  0.13514067  0.87375050  1.0
  Na  Na2  1  0.63108967  0.30180733  0.37375050  1.0
  Na  Na2  1  0.63108967  0.30180733  0.87375050  1.0
  Na  Na2  1  0.63108967  0.46847400  0.37375050  1.0
  Na  Na2  1  0.63108967  0.46847400  0.87375050  1.0
  Na  Na2  1  0.63108967  0.63514067  0.37375050  1.0
  Na  Na2  1  0.63108967  0.63514067  0.87375050  1.0
  Na  Na2  1  0.63108967  0.80180733  0.37375050  1.0
  Na  Na2  1  0.63108967  0.80180733  0.87375050  1.0
  Na  Na2  1  0.63108967  0.96847400  0.37375050  1.0
  Na  Na2  1  0.63108967  0.96847400  0.87375050  1.0
  Na  Na2  1  0.79775633  0.13514067  0.37375050  1.0
  Na  Na2  1  0.79775633  0.13514067  0.87375050  1.0
  Na  Na2  1  0.79775633  0.30180733  0.37375050  1.0
  Na  Na2  1  0.79775633  0.30180733  0.87375050  1.0
  Na  Na2  1  0.79775633  0.46847400  0.37375050  1.0
  Na  Na2  1  0.79775633  0.46847400  0.87375050  1.0
  Na  Na2  1  0.79775633  0.63514067  0.37375050  1.0
  Na  Na2  1  0.79775633  0.63514067  0.87375050  1.0
  Na  Na2  1  0.79775633  0.80180733  0.37375050  1.0
  Na  Na2  1  0.79775633  0.80180733  0.87375050  1.0
  Na  Na2  1  0.79775633  0.96847400  0.37375050  1.0
  Na  Na2  1  0.79775633  0.96847400  0.87375050  1.0
  Na  Na2  1  0.96442300  0.13514067  0.37375050  1.0
  Na  Na2  1  0.96442300  0.13514067  0.87375050  1.0
  Na  Na2  1  0.96442300  0.30180733  0.37375050  1.0
  Na  Na2  1  0.96442300  0.30180733  0.87375050  1.0
  Na  Na2  1  0.96442300  0.46847400  0.37375050  1.0
  Na  Na2  1  0.96442300  0.46847400  0.87375050  1.0
  Na  Na2  1  0.96442300  0.63514067  0.37375050  1.0
  Na  Na2  1  0.96442300  0.63514067  0.87375050  1.0
  Na  Na2  1  0.96442300  0.80180733  0.37375050  1.0
  Na  Na2  1  0.96442300  0.80180733  0.87375050  1.0
  Na  Na2  1  0.96442300  0.96847400  0.37375050  1.0
  Na  Na2  1  0.96442300  0.96847400  0.87375050  1.0
  Na  Na3  1  0.03557700  0.05180733  0.37624950  1.0
  Na  Na3  1  0.03557700  0.05180733  0.87624950  1.0
  Na  Na3  1  0.03557700  0.21847400  0.37624950  1.0
  Na  Na3  1  0.03557700  0.21847400  0.87624950  1.0
  Na  Na3  1  0.03557700  0.38514067  0.37624950  1.0
  Na  Na3  1  0.03557700  0.38514067  0.87624950  1.0
  Na  Na3  1  0.03557700  0.55180733  0.37624950  1.0
  Na  Na3  1  0.03557700  0.55180733  0.87624950  1.0
  Na  Na3  1  0.03557700  0.71847400  0.37624950  1.0
  Na  Na3  1  0.03557700  0.71847400  0.87624950  1.0
  Na  Na3  1  0.03557700  0.88514067  0.37624950  1.0
  Na  Na3  1  0.03557700  0.88514067  0.87624950  1.0
  Na  Na3  1  0.20224367  0.05180733  0.37624950  1.0
  Na  Na3  1  0.20224367  0.05180733  0.87624950  1.0
  Na  Na3  1  0.20224367  0.21847400  0.37624950  1.0
  Na  Na3  1  0.20224367  0.21847400  0.87624950  1.0
  Na  Na3  1  0.20224367  0.38514067  0.37624950  1.0
  Na  Na3  1  0.20224367  0.38514067  0.87624950  1.0
  Na  Na3  1  0.20224367  0.55180733  0.37624950  1.0
  Na  Na3  1  0.20224367  0.55180733  0.87624950  1.0
  Na  Na3  1  0.20224367  0.71847400  0.37624950  1.0
  Na  Na3  1  0.20224367  0.71847400  0.87624950  1.0
  Na  Na3  1  0.20224367  0.88514067  0.37624950  1.0
  Na  Na3  1  0.20224367  0.88514067  0.87624950  1.0
  Na  Na3  1  0.36891033  0.05180733  0.37624950  1.0
  Na  Na3  1  0.36891033  0.05180733  0.87624950  1.0
  Na  Na3  1  0.36891033  0.21847400  0.37624950  1.0
  Na  Na3  1  0.36891033  0.21847400  0.87624950  1.0
  Na  Na3  1  0.36891033  0.38514067  0.37624950  1.0
  Na  Na3  1  0.36891033  0.38514067  0.87624950  1.0
  Na  Na3  1  0.36891033  0.55180733  0.37624950  1.0
  Na  Na3  1  0.36891033  0.55180733  0.87624950  1.0
  Na  Na3  1  0.36891033  0.71847400  0.37624950  1.0
  Na  Na3  1  0.36891033  0.71847400  0.87624950  1.0
  Na  Na3  1  0.36891033  0.88514067  0.37624950  1.0
  Na  Na3  1  0.36891033  0.88514067  0.87624950  1.0
  Na  Na3  1  0.53557700  0.05180733  0.37624950  1.0
  Na  Na3  1  0.53557700  0.05180733  0.87624950  1.0
  Na  Na3  1  0.53557700  0.21847400  0.37624950  1.0
  Na  Na3  1  0.53557700  0.21847400  0.87624950  1.0
  Na  Na3  1  0.53557700  0.38514067  0.37624950  1.0
  Na  Na3  1  0.53557700  0.38514067  0.87624950  1.0
  Na  Na3  1  0.53557700  0.55180733  0.37624950  1.0
  Na  Na3  1  0.53557700  0.55180733  0.87624950  1.0
  Na  Na3  1  0.53557700  0.71847400  0.37624950  1.0
  Na  Na3  1  0.53557700  0.71847400  0.87624950  1.0
  Na  Na3  1  0.53557700  0.88514067  0.37624950  1.0
  Na  Na3  1  0.53557700  0.88514067  0.87624950  1.0
  Na  Na3  1  0.70224367  0.05180733  0.37624950  1.0
  Na  Na3  1  0.70224367  0.05180733  0.87624950  1.0
  Na  Na3  1  0.70224367  0.21847400  0.37624950  1.0
  Na  Na3  1  0.70224367  0.21847400  0.87624950  1.0
  Na  Na3  1  0.70224367  0.38514067  0.37624950  1.0
  Na  Na3  1  0.70224367  0.38514067  0.87624950  1.0
  Na  Na3  1  0.70224367  0.55180733  0.37624950  1.0
  Na  Na3  1  0.70224367  0.55180733  0.87624950  1.0
  Na  Na3  1  0.70224367  0.71847400  0.37624950  1.0
  Na  Na3  1  0.70224367  0.71847400  0.87624950  1.0
  Na  Na3  1  0.70224367  0.88514067  0.37624950  1.0
  Na  Na3  1  0.70224367  0.88514067  0.87624950  1.0
  Na  Na3  1  0.86891033  0.05180733  0.37624950  1.0
  Na  Na3  1  0.86891033  0.05180733  0.87624950  1.0
  Na  Na3  1  0.86891033  0.21847400  0.37624950  1.0
  Na  Na3  1  0.86891033  0.21847400  0.87624950  1.0
  Na  Na3  1  0.86891033  0.38514067  0.37624950  1.0
  Na  Na3  1  0.86891033  0.38514067  0.87624950  1.0
  Na  Na3  1  0.86891033  0.55180733  0.37624950  1.0
  Na  Na3  1  0.86891033  0.55180733  0.87624950  1.0
  Na  Na3  1  0.86891033  0.71847400  0.37624950  1.0
  Na  Na3  1  0.86891033  0.71847400  0.87624950  1.0
  Na  Na3  1  0.86891033  0.88514067  0.37624950  1.0
  Na  Na3  1  0.86891033  0.88514067  0.87624950  1.0
  Ta  Ta4  1  0.12390517  0.04709767  0.19126050  1.0
  Ta  Ta4  1  0.12390517  0.04709767  0.69126050  1.0
  Ta  Ta4  1  0.12390517  0.21376433  0.19126050  1.0
  Ta  Ta4  1  0.12390517  0.21376433  0.69126050  1.0
  Ta  Ta4  1  0.12390517  0.38043100  0.19126050  1.0
  Ta  Ta4  1  0.12390517  0.38043100  0.69126050  1.0
  Ta  Ta4  1  0.12390517  0.54709767  0.19126050  1.0
  Ta  Ta4  1  0.12390517  0.54709767  0.69126050  1.0
  Ta  Ta4  1  0.12390517  0.71376433  0.19126050  1.0
  Ta  Ta4  1  0.12390517  0.71376433  0.69126050  1.0
  Ta  Ta4  1  0.12390517  0.88043100  0.19126050  1.0
  Ta  Ta4  1  0.12390517  0.88043100  0.69126050  1.0
  Ta  Ta4  1  0.29057183  0.04709767  0.19126050  1.0
  Ta  Ta4  1  0.29057183  0.04709767  0.69126050  1.0
  Ta  Ta4  1  0.29057183  0.21376433  0.19126050  1.0
  Ta  Ta4  1  0.29057183  0.21376433  0.69126050  1.0
  Ta  Ta4  1  0.29057183  0.38043100  0.19126050  1.0
  Ta  Ta4  1  0.29057183  0.38043100  0.69126050  1.0
  Ta  Ta4  1  0.29057183  0.54709767  0.19126050  1.0
  Ta  Ta4  1  0.29057183  0.54709767  0.69126050  1.0
  Ta  Ta4  1  0.29057183  0.71376433  0.19126050  1.0
  Ta  Ta4  1  0.29057183  0.71376433  0.69126050  1.0
  Ta  Ta4  1  0.29057183  0.88043100  0.19126050  1.0
  Ta  Ta4  1  0.29057183  0.88043100  0.69126050  1.0
  Ta  Ta4  1  0.45723850  0.04709767  0.19126050  1.0
  Ta  Ta4  1  0.45723850  0.04709767  0.69126050  1.0
  Ta  Ta4  1  0.45723850  0.21376433  0.19126050  1.0
  Ta  Ta4  1  0.45723850  0.21376433  0.69126050  1.0
  Ta  Ta4  1  0.45723850  0.38043100  0.19126050  1.0
  Ta  Ta4  1  0.45723850  0.38043100  0.69126050  1.0
  Ta  Ta4  1  0.45723850  0.54709767  0.19126050  1.0
  Ta  Ta4  1  0.45723850  0.54709767  0.69126050  1.0
  Ta  Ta4  1  0.45723850  0.71376433  0.19126050  1.0
  Ta  Ta4  1  0.45723850  0.71376433  0.69126050  1.0
  Ta  Ta4  1  0.45723850  0.88043100  0.19126050  1.0
  Ta  Ta4  1  0.45723850  0.88043100  0.69126050  1.0
  Ta  Ta4  1  0.62390517  0.04709767  0.19126050  1.0
  Ta  Ta4  1  0.62390517  0.04709767  0.69126050  1.0
  Ta  Ta4  1  0.62390517  0.21376433  0.19126050  1.0
  Ta  Ta4  1  0.62390517  0.21376433  0.69126050  1.0
  Ta  Ta4  1  0.62390517  0.38043100  0.19126050  1.0
  Ta  Ta4  1  0.62390517  0.38043100  0.69126050  1.0
  Ta  Ta4  1  0.62390517  0.54709767  0.19126050  1.0
  Ta  Ta4  1  0.62390517  0.54709767  0.69126050  1.0
  Ta  Ta4  1  0.62390517  0.71376433  0.19126050  1.0
  Ta  Ta4  1  0.62390517  0.71376433  0.69126050  1.0
  Ta  Ta4  1  0.62390517  0.88043100  0.19126050  1.0
  Ta  Ta4  1  0.62390517  0.88043100  0.69126050  1.0
  Ta  Ta4  1  0.79057183  0.04709767  0.19126050  1.0
  Ta  Ta4  1  0.79057183  0.04709767  0.69126050  1.0
  Ta  Ta4  1  0.79057183  0.21376433  0.19126050  1.0
  Ta  Ta4  1  0.79057183  0.21376433  0.69126050  1.0
  Ta  Ta4  1  0.79057183  0.38043100  0.19126050  1.0
  Ta  Ta4  1  0.79057183  0.38043100  0.69126050  1.0
  Ta  Ta4  1  0.79057183  0.54709767  0.19126050  1.0
  Ta  Ta4  1  0.79057183  0.54709767  0.69126050  1.0
  Ta  Ta4  1  0.79057183  0.71376433  0.19126050  1.0
  Ta  Ta4  1  0.79057183  0.71376433  0.69126050  1.0
  Ta  Ta4  1  0.79057183  0.88043100  0.19126050  1.0
  Ta  Ta4  1  0.79057183  0.88043100  0.69126050  1.0
  Ta  Ta4  1  0.95723850  0.04709767  0.19126050  1.0
  Ta  Ta4  1  0.95723850  0.04709767  0.69126050  1.0
  Ta  Ta4  1  0.95723850  0.21376433  0.19126050  1.0
  Ta  Ta4  1  0.95723850  0.21376433  0.69126050  1.0
  Ta  Ta4  1  0.95723850  0.38043100  0.19126050  1.0
  Ta  Ta4  1  0.95723850  0.38043100  0.69126050  1.0
  Ta  Ta4  1  0.95723850  0.54709767  0.19126050  1.0
  Ta  Ta4  1  0.95723850  0.54709767  0.69126050  1.0
  Ta  Ta4  1  0.95723850  0.71376433  0.19126050  1.0
  Ta  Ta4  1  0.95723850  0.71376433  0.69126050  1.0
  Ta  Ta4  1  0.95723850  0.88043100  0.19126050  1.0
  Ta  Ta4  1  0.95723850  0.88043100  0.69126050  1.0
  Ta  Ta5  1  0.04276150  0.13043100  0.05873950  1.0
  Ta  Ta5  1  0.04276150  0.13043100  0.55873950  1.0
  Ta  Ta5  1  0.04276150  0.29709767  0.05873950  1.0
  Ta  Ta5  1  0.04276150  0.29709767  0.55873950  1.0
  Ta  Ta5  1  0.04276150  0.46376433  0.05873950  1.0
  Ta  Ta5  1  0.04276150  0.46376433  0.55873950  1.0
  Ta  Ta5  1  0.04276150  0.63043100  0.05873950  1.0
  Ta  Ta5  1  0.04276150  0.63043100  0.55873950  1.0
  Ta  Ta5  1  0.04276150  0.79709767  0.05873950  1.0
  Ta  Ta5  1  0.04276150  0.79709767  0.55873950  1.0
  Ta  Ta5  1  0.04276150  0.96376433  0.05873950  1.0
  Ta  Ta5  1  0.04276150  0.96376433  0.55873950  1.0
  Ta  Ta5  1  0.20942817  0.13043100  0.05873950  1.0
  Ta  Ta5  1  0.20942817  0.13043100  0.55873950  1.0
  Ta  Ta5  1  0.20942817  0.29709767  0.05873950  1.0
  Ta  Ta5  1  0.20942817  0.29709767  0.55873950  1.0
  Ta  Ta5  1  0.20942817  0.46376433  0.05873950  1.0
  Ta  Ta5  1  0.20942817  0.46376433  0.55873950  1.0
  Ta  Ta5  1  0.20942817  0.63043100  0.05873950  1.0
  Ta  Ta5  1  0.20942817  0.63043100  0.55873950  1.0
  Ta  Ta5  1  0.20942817  0.79709767  0.05873950  1.0
  Ta  Ta5  1  0.20942817  0.79709767  0.55873950  1.0
  Ta  Ta5  1  0.20942817  0.96376433  0.05873950  1.0
  Ta  Ta5  1  0.20942817  0.96376433  0.55873950  1.0
  Ta  Ta5  1  0.37609483  0.13043100  0.05873950  1.0
  Ta  Ta5  1  0.37609483  0.13043100  0.55873950  1.0
  Ta  Ta5  1  0.37609483  0.29709767  0.05873950  1.0
  Ta  Ta5  1  0.37609483  0.29709767  0.55873950  1.0
  Ta  Ta5  1  0.37609483  0.46376433  0.05873950  1.0
  Ta  Ta5  1  0.37609483  0.46376433  0.55873950  1.0
  Ta  Ta5  1  0.37609483  0.63043100  0.05873950  1.0
  Ta  Ta5  1  0.37609483  0.63043100  0.55873950  1.0
  Ta  Ta5  1  0.37609483  0.79709767  0.05873950  1.0
  Ta  Ta5  1  0.37609483  0.79709767  0.55873950  1.0
  Ta  Ta5  1  0.37609483  0.96376433  0.05873950  1.0
  Ta  Ta5  1  0.37609483  0.96376433  0.55873950  1.0
  Ta  Ta5  1  0.54276150  0.13043100  0.05873950  1.0
  Ta  Ta5  1  0.54276150  0.13043100  0.55873950  1.0
  Ta  Ta5  1  0.54276150  0.29709767  0.05873950  1.0
  Ta  Ta5  1  0.54276150  0.29709767  0.55873950  1.0
  Ta  Ta5  1  0.54276150  0.46376433  0.05873950  1.0
  Ta  Ta5  1  0.54276150  0.46376433  0.55873950  1.0
  Ta  Ta5  1  0.54276150  0.63043100  0.05873950  1.0
  Ta  Ta5  1  0.54276150  0.63043100  0.55873950  1.0
  Ta  Ta5  1  0.54276150  0.79709767  0.05873950  1.0
  Ta  Ta5  1  0.54276150  0.79709767  0.55873950  1.0
  Ta  Ta5  1  0.54276150  0.96376433  0.05873950  1.0
  Ta  Ta5  1  0.54276150  0.96376433  0.55873950  1.0
  Ta  Ta5  1  0.70942817  0.13043100  0.05873950  1.0
  Ta  Ta5  1  0.70942817  0.13043100  0.55873950  1.0
  Ta  Ta5  1  0.70942817  0.29709767  0.05873950  1.0
  Ta  Ta5  1  0.70942817  0.29709767  0.55873950  1.0
  Ta  Ta5  1  0.70942817  0.46376433  0.05873950  1.0
  Ta  Ta5  1  0.70942817  0.46376433  0.55873950  1.0
  Ta  Ta5  1  0.70942817  0.63043100  0.05873950  1.0
  Ta  Ta5  1  0.70942817  0.63043100  0.55873950  1.0
  Ta  Ta5  1  0.70942817  0.79709767  0.05873950  1.0
  Ta  Ta5  1  0.70942817  0.79709767  0.55873950  1.0
  Ta  Ta5  1  0.70942817  0.96376433  0.05873950  1.0
  Ta  Ta5  1  0.70942817  0.96376433  0.55873950  1.0
  Ta  Ta5  1  0.87609483  0.13043100  0.05873950  1.0
  Ta  Ta5  1  0.87609483  0.13043100  0.55873950  1.0
  Ta  Ta5  1  0.87609483  0.29709767  0.05873950  1.0
  Ta  Ta5  1  0.87609483  0.29709767  0.55873950  1.0
  Ta  Ta5  1  0.87609483  0.46376433  0.05873950  1.0
  Ta  Ta5  1  0.87609483  0.46376433  0.55873950  1.0
  Ta  Ta5  1  0.87609483  0.63043100  0.05873950  1.0
  Ta  Ta5  1  0.87609483  0.63043100  0.55873950  1.0
  Ta  Ta5  1  0.87609483  0.79709767  0.05873950  1.0
  Ta  Ta5  1  0.87609483  0.79709767  0.55873950  1.0
  Ta  Ta5  1  0.87609483  0.96376433  0.05873950  1.0
  Ta  Ta5  1  0.87609483  0.96376433  0.55873950  1.0
  Ta  Ta6  1  0.04276150  0.11956900  0.30873950  1.0
  Ta  Ta6  1  0.04276150  0.11956900  0.80873950  1.0
  Ta  Ta6  1  0.04276150  0.28623567  0.30873950  1.0
  Ta  Ta6  1  0.04276150  0.28623567  0.80873950  1.0
  Ta  Ta6  1  0.04276150  0.45290233  0.30873950  1.0
  Ta  Ta6  1  0.04276150  0.45290233  0.80873950  1.0
  Ta  Ta6  1  0.04276150  0.61956900  0.30873950  1.0
  Ta  Ta6  1  0.04276150  0.61956900  0.80873950  1.0
  Ta  Ta6  1  0.04276150  0.78623567  0.30873950  1.0
  Ta  Ta6  1  0.04276150  0.78623567  0.80873950  1.0
  Ta  Ta6  1  0.04276150  0.95290233  0.30873950  1.0
  Ta  Ta6  1  0.04276150  0.95290233  0.80873950  1.0
  Ta  Ta6  1  0.20942817  0.11956900  0.30873950  1.0
  Ta  Ta6  1  0.20942817  0.11956900  0.80873950  1.0
  Ta  Ta6  1  0.20942817  0.28623567  0.30873950  1.0
  Ta  Ta6  1  0.20942817  0.28623567  0.80873950  1.0
  Ta  Ta6  1  0.20942817  0.45290233  0.30873950  1.0
  Ta  Ta6  1  0.20942817  0.45290233  0.80873950  1.0
  Ta  Ta6  1  0.20942817  0.61956900  0.30873950  1.0
  Ta  Ta6  1  0.20942817  0.61956900  0.80873950  1.0
  Ta  Ta6  1  0.20942817  0.78623567  0.30873950  1.0
  Ta  Ta6  1  0.20942817  0.78623567  0.80873950  1.0
  Ta  Ta6  1  0.20942817  0.95290233  0.30873950  1.0
  Ta  Ta6  1  0.20942817  0.95290233  0.80873950  1.0
  Ta  Ta6  1  0.37609483  0.11956900  0.30873950  1.0
  Ta  Ta6  1  0.37609483  0.11956900  0.80873950  1.0
  Ta  Ta6  1  0.37609483  0.28623567  0.30873950  1.0
  Ta  Ta6  1  0.37609483  0.28623567  0.80873950  1.0
  Ta  Ta6  1  0.37609483  0.45290233  0.30873950  1.0
  Ta  Ta6  1  0.37609483  0.45290233  0.80873950  1.0
  Ta  Ta6  1  0.37609483  0.61956900  0.30873950  1.0
  Ta  Ta6  1  0.37609483  0.61956900  0.80873950  1.0
  Ta  Ta6  1  0.37609483  0.78623567  0.30873950  1.0
  Ta  Ta6  1  0.37609483  0.78623567  0.80873950  1.0
  Ta  Ta6  1  0.37609483  0.95290233  0.30873950  1.0
  Ta  Ta6  1  0.37609483  0.95290233  0.80873950  1.0
  Ta  Ta6  1  0.54276150  0.11956900  0.30873950  1.0
  Ta  Ta6  1  0.54276150  0.11956900  0.80873950  1.0
  Ta  Ta6  1  0.54276150  0.28623567  0.30873950  1.0
  Ta  Ta6  1  0.54276150  0.28623567  0.80873950  1.0
  Ta  Ta6  1  0.54276150  0.45290233  0.30873950  1.0
  Ta  Ta6  1  0.54276150  0.45290233  0.80873950  1.0
  Ta  Ta6  1  0.54276150  0.61956900  0.30873950  1.0
  Ta  Ta6  1  0.54276150  0.61956900  0.80873950  1.0
  Ta  Ta6  1  0.54276150  0.78623567  0.30873950  1.0
  Ta  Ta6  1  0.54276150  0.78623567  0.80873950  1.0
  Ta  Ta6  1  0.54276150  0.95290233  0.30873950  1.0
  Ta  Ta6  1  0.54276150  0.95290233  0.80873950  1.0
  Ta  Ta6  1  0.70942817  0.11956900  0.30873950  1.0
  Ta  Ta6  1  0.70942817  0.11956900  0.80873950  1.0
  Ta  Ta6  1  0.70942817  0.28623567  0.30873950  1.0
  Ta  Ta6  1  0.70942817  0.28623567  0.80873950  1.0
  Ta  Ta6  1  0.70942817  0.45290233  0.30873950  1.0
  Ta  Ta6  1  0.70942817  0.45290233  0.80873950  1.0
  Ta  Ta6  1  0.70942817  0.61956900  0.30873950  1.0
  Ta  Ta6  1  0.70942817  0.61956900  0.80873950  1.0
  Ta  Ta6  1  0.70942817  0.78623567  0.30873950  1.0
  Ta  Ta6  1  0.70942817  0.78623567  0.80873950  1.0
  Ta  Ta6  1  0.70942817  0.95290233  0.30873950  1.0
  Ta  Ta6  1  0.70942817  0.95290233  0.80873950  1.0
  Ta  Ta6  1  0.87609483  0.11956900  0.30873950  1.0
  Ta  Ta6  1  0.87609483  0.11956900  0.80873950  1.0
  Ta  Ta6  1  0.87609483  0.28623567  0.30873950  1.0
  Ta  Ta6  1  0.87609483  0.28623567  0.80873950  1.0
  Ta  Ta6  1  0.87609483  0.45290233  0.30873950  1.0
  Ta  Ta6  1  0.87609483  0.45290233  0.80873950  1.0
  Ta  Ta6  1  0.87609483  0.61956900  0.30873950  1.0
  Ta  Ta6  1  0.87609483  0.61956900  0.80873950  1.0
  Ta  Ta6  1  0.87609483  0.78623567  0.30873950  1.0
  Ta  Ta6  1  0.87609483  0.78623567  0.80873950  1.0
  Ta  Ta6  1  0.87609483  0.95290233  0.30873950  1.0
  Ta  Ta6  1  0.87609483  0.95290233  0.80873950  1.0
  Ta  Ta7  1  0.12390517  0.03623567  0.44126050  1.0
  Ta  Ta7  1  0.12390517  0.03623567  0.94126050  1.0
  Ta  Ta7  1  0.12390517  0.20290233  0.44126050  1.0
  Ta  Ta7  1  0.12390517  0.20290233  0.94126050  1.0
  Ta  Ta7  1  0.12390517  0.36956900  0.44126050  1.0
  Ta  Ta7  1  0.12390517  0.36956900  0.94126050  1.0
  Ta  Ta7  1  0.12390517  0.53623567  0.44126050  1.0
  Ta  Ta7  1  0.12390517  0.53623567  0.94126050  1.0
  Ta  Ta7  1  0.12390517  0.70290233  0.44126050  1.0
  Ta  Ta7  1  0.12390517  0.70290233  0.94126050  1.0
  Ta  Ta7  1  0.12390517  0.86956900  0.44126050  1.0
  Ta  Ta7  1  0.12390517  0.86956900  0.94126050  1.0
  Ta  Ta7  1  0.29057183  0.03623567  0.44126050  1.0
  Ta  Ta7  1  0.29057183  0.03623567  0.94126050  1.0
  Ta  Ta7  1  0.29057183  0.20290233  0.44126050  1.0
  Ta  Ta7  1  0.29057183  0.20290233  0.94126050  1.0
  Ta  Ta7  1  0.29057183  0.36956900  0.44126050  1.0
  Ta  Ta7  1  0.29057183  0.36956900  0.94126050  1.0
  Ta  Ta7  1  0.29057183  0.53623567  0.44126050  1.0
  Ta  Ta7  1  0.29057183  0.53623567  0.94126050  1.0
  Ta  Ta7  1  0.29057183  0.70290233  0.44126050  1.0
  Ta  Ta7  1  0.29057183  0.70290233  0.94126050  1.0
  Ta  Ta7  1  0.29057183  0.86956900  0.44126050  1.0
  Ta  Ta7  1  0.29057183  0.86956900  0.94126050  1.0
  Ta  Ta7  1  0.45723850  0.03623567  0.44126050  1.0
  Ta  Ta7  1  0.45723850  0.03623567  0.94126050  1.0
  Ta  Ta7  1  0.45723850  0.20290233  0.44126050  1.0
  Ta  Ta7  1  0.45723850  0.20290233  0.94126050  1.0
  Ta  Ta7  1  0.45723850  0.36956900  0.44126050  1.0
  Ta  Ta7  1  0.45723850  0.36956900  0.94126050  1.0
  Ta  Ta7  1  0.45723850  0.53623567  0.44126050  1.0
  Ta  Ta7  1  0.45723850  0.53623567  0.94126050  1.0
  Ta  Ta7  1  0.45723850  0.70290233  0.44126050  1.0
  Ta  Ta7  1  0.45723850  0.70290233  0.94126050  1.0
  Ta  Ta7  1  0.45723850  0.86956900  0.44126050  1.0
  Ta  Ta7  1  0.45723850  0.86956900  0.94126050  1.0
  Ta  Ta7  1  0.62390517  0.03623567  0.44126050  1.0
  Ta  Ta7  1  0.62390517  0.03623567  0.94126050  1.0
  Ta  Ta7  1  0.62390517  0.20290233  0.44126050  1.0
  Ta  Ta7  1  0.62390517  0.20290233  0.94126050  1.0
  Ta  Ta7  1  0.62390517  0.36956900  0.44126050  1.0
  Ta  Ta7  1  0.62390517  0.36956900  0.94126050  1.0
  Ta  Ta7  1  0.62390517  0.53623567  0.44126050  1.0
  Ta  Ta7  1  0.62390517  0.53623567  0.94126050  1.0
  Ta  Ta7  1  0.62390517  0.70290233  0.44126050  1.0
  Ta  Ta7  1  0.62390517  0.70290233  0.94126050  1.0
  Ta  Ta7  1  0.62390517  0.86956900  0.44126050  1.0
  Ta  Ta7  1  0.62390517  0.86956900  0.94126050  1.0
  Ta  Ta7  1  0.79057183  0.03623567  0.44126050  1.0
  Ta  Ta7  1  0.79057183  0.03623567  0.94126050  1.0
  Ta  Ta7  1  0.79057183  0.20290233  0.44126050  1.0
  Ta  Ta7  1  0.79057183  0.20290233  0.94126050  1.0
  Ta  Ta7  1  0.79057183  0.36956900  0.44126050  1.0
  Ta  Ta7  1  0.79057183  0.36956900  0.94126050  1.0
  Ta  Ta7  1  0.79057183  0.53623567  0.44126050  1.0
  Ta  Ta7  1  0.79057183  0.53623567  0.94126050  1.0
  Ta  Ta7  1  0.79057183  0.70290233  0.44126050  1.0
  Ta  Ta7  1  0.79057183  0.70290233  0.94126050  1.0
  Ta  Ta7  1  0.79057183  0.86956900  0.44126050  1.0
  Ta  Ta7  1  0.79057183  0.86956900  0.94126050  1.0
  Ta  Ta7  1  0.95723850  0.03623567  0.44126050  1.0
  Ta  Ta7  1  0.95723850  0.03623567  0.94126050  1.0
  Ta  Ta7  1  0.95723850  0.20290233  0.44126050  1.0
  Ta  Ta7  1  0.95723850  0.20290233  0.94126050  1.0
  Ta  Ta7  1  0.95723850  0.36956900  0.44126050  1.0
  Ta  Ta7  1  0.95723850  0.36956900  0.94126050  1.0
  Ta  Ta7  1  0.95723850  0.53623567  0.44126050  1.0
  Ta  Ta7  1  0.95723850  0.53623567  0.94126050  1.0
  Ta  Ta7  1  0.95723850  0.70290233  0.44126050  1.0
  Ta  Ta7  1  0.95723850  0.70290233  0.94126050  1.0
  Ta  Ta7  1  0.95723850  0.86956900  0.44126050  1.0
  Ta  Ta7  1  0.95723850  0.86956900  0.94126050  1.0
  Cl  Cl8  1  0.10261667  0.03019383  0.38240200  1.0
  Cl  Cl8  1  0.10261667  0.03019383  0.88240200  1.0
  Cl  Cl8  1  0.10261667  0.19686050  0.38240200  1.0
  Cl  Cl8  1  0.10261667  0.19686050  0.88240200  1.0
  Cl  Cl8  1  0.10261667  0.36352717  0.38240200  1.0
  Cl  Cl8  1  0.10261667  0.36352717  0.88240200  1.0
  Cl  Cl8  1  0.10261667  0.53019383  0.38240200  1.0
  Cl  Cl8  1  0.10261667  0.53019383  0.88240200  1.0
  Cl  Cl8  1  0.10261667  0.69686050  0.38240200  1.0
  Cl  Cl8  1  0.10261667  0.69686050  0.88240200  1.0
  Cl  Cl8  1  0.10261667  0.86352717  0.38240200  1.0
  Cl  Cl8  1  0.10261667  0.86352717  0.88240200  1.0
  Cl  Cl8  1  0.26928333  0.03019383  0.38240200  1.0
  Cl  Cl8  1  0.26928333  0.03019383  0.88240200  1.0
  Cl  Cl8  1  0.26928333  0.19686050  0.38240200  1.0
  Cl  Cl8  1  0.26928333  0.19686050  0.88240200  1.0
  Cl  Cl8  1  0.26928333  0.36352717  0.38240200  1.0
  Cl  Cl8  1  0.26928333  0.36352717  0.88240200  1.0
  Cl  Cl8  1  0.26928333  0.53019383  0.38240200  1.0
  Cl  Cl8  1  0.26928333  0.53019383  0.88240200  1.0
  Cl  Cl8  1  0.26928333  0.69686050  0.38240200  1.0
  Cl  Cl8  1  0.26928333  0.69686050  0.88240200  1.0
  Cl  Cl8  1  0.26928333  0.86352717  0.38240200  1.0
  Cl  Cl8  1  0.26928333  0.86352717  0.88240200  1.0
  Cl  Cl8  1  0.43595000  0.03019383  0.38240200  1.0
  Cl  Cl8  1  0.43595000  0.03019383  0.88240200  1.0
  Cl  Cl8  1  0.43595000  0.19686050  0.38240200  1.0
  Cl  Cl8  1  0.43595000  0.19686050  0.88240200  1.0
  Cl  Cl8  1  0.43595000  0.36352717  0.38240200  1.0
  Cl  Cl8  1  0.43595000  0.36352717  0.88240200  1.0
  Cl  Cl8  1  0.43595000  0.53019383  0.38240200  1.0
  Cl  Cl8  1  0.43595000  0.53019383  0.88240200  1.0
  Cl  Cl8  1  0.43595000  0.69686050  0.38240200  1.0
  Cl  Cl8  1  0.43595000  0.69686050  0.88240200  1.0
  Cl  Cl8  1  0.43595000  0.86352717  0.38240200  1.0
  Cl  Cl8  1  0.43595000  0.86352717  0.88240200  1.0
  Cl  Cl8  1  0.60261667  0.03019383  0.38240200  1.0
  Cl  Cl8  1  0.60261667  0.03019383  0.88240200  1.0
  Cl  Cl8  1  0.60261667  0.19686050  0.38240200  1.0
  Cl  Cl8  1  0.60261667  0.19686050  0.88240200  1.0
  Cl  Cl8  1  0.60261667  0.36352717  0.38240200  1.0
  Cl  Cl8  1  0.60261667  0.36352717  0.88240200  1.0
  Cl  Cl8  1  0.60261667  0.53019383  0.38240200  1.0
  Cl  Cl8  1  0.60261667  0.53019383  0.88240200  1.0
  Cl  Cl8  1  0.60261667  0.69686050  0.38240200  1.0
  Cl  Cl8  1  0.60261667  0.69686050  0.88240200  1.0
  Cl  Cl8  1  0.60261667  0.86352717  0.38240200  1.0
  Cl  Cl8  1  0.60261667  0.86352717  0.88240200  1.0
  Cl  Cl8  1  0.76928333  0.03019383  0.38240200  1.0
  Cl  Cl8  1  0.76928333  0.03019383  0.88240200  1.0
  Cl  Cl8  1  0.76928333  0.19686050  0.38240200  1.0
  Cl  Cl8  1  0.76928333  0.19686050  0.88240200  1.0
  Cl  Cl8  1  0.76928333  0.36352717  0.38240200  1.0
  Cl  Cl8  1  0.76928333  0.36352717  0.88240200  1.0
  Cl  Cl8  1  0.76928333  0.53019383  0.38240200  1.0
  Cl  Cl8  1  0.76928333  0.53019383  0.88240200  1.0
  Cl  Cl8  1  0.76928333  0.69686050  0.38240200  1.0
  Cl  Cl8  1  0.76928333  0.69686050  0.88240200  1.0
  Cl  Cl8  1  0.76928333  0.86352717  0.38240200  1.0
  Cl  Cl8  1  0.76928333  0.86352717  0.88240200  1.0
  Cl  Cl8  1  0.93595000  0.03019383  0.38240200  1.0
  Cl  Cl8  1  0.93595000  0.03019383  0.88240200  1.0
  Cl  Cl8  1  0.93595000  0.19686050  0.38240200  1.0
  Cl  Cl8  1  0.93595000  0.19686050  0.88240200  1.0
  Cl  Cl8  1  0.93595000  0.36352717  0.38240200  1.0
  Cl  Cl8  1  0.93595000  0.36352717  0.88240200  1.0
  Cl  Cl8  1  0.93595000  0.53019383  0.38240200  1.0
  Cl  Cl8  1  0.93595000  0.53019383  0.88240200  1.0
  Cl  Cl8  1  0.93595000  0.69686050  0.38240200  1.0
  Cl  Cl8  1  0.93595000  0.69686050  0.88240200  1.0
  Cl  Cl8  1  0.93595000  0.86352717  0.38240200  1.0
  Cl  Cl8  1  0.93595000  0.86352717  0.88240200  1.0
  Cl  Cl9  1  0.06405000  0.11352717  0.36759800  1.0
  Cl  Cl9  1  0.06405000  0.11352717  0.86759800  1.0
  Cl  Cl9  1  0.06405000  0.28019383  0.36759800  1.0
  Cl  Cl9  1  0.06405000  0.28019383  0.86759800  1.0
  Cl  Cl9  1  0.06405000  0.44686050  0.36759800  1.0
  Cl  Cl9  1  0.06405000  0.44686050  0.86759800  1.0
  Cl  Cl9  1  0.06405000  0.61352717  0.36759800  1.0
  Cl  Cl9  1  0.06405000  0.61352717  0.86759800  1.0
  Cl  Cl9  1  0.06405000  0.78019383  0.36759800  1.0
  Cl  Cl9  1  0.06405000  0.78019383  0.86759800  1.0
  Cl  Cl9  1  0.06405000  0.94686050  0.36759800  1.0
  Cl  Cl9  1  0.06405000  0.94686050  0.86759800  1.0
  Cl  Cl9  1  0.23071667  0.11352717  0.36759800  1.0
  Cl  Cl9  1  0.23071667  0.11352717  0.86759800  1.0
  Cl  Cl9  1  0.23071667  0.28019383  0.36759800  1.0
  Cl  Cl9  1  0.23071667  0.28019383  0.86759800  1.0
  Cl  Cl9  1  0.23071667  0.44686050  0.36759800  1.0
  Cl  Cl9  1  0.23071667  0.44686050  0.86759800  1.0
  Cl  Cl9  1  0.23071667  0.61352717  0.36759800  1.0
  Cl  Cl9  1  0.23071667  0.61352717  0.86759800  1.0
  Cl  Cl9  1  0.23071667  0.78019383  0.36759800  1.0
  Cl  Cl9  1  0.23071667  0.78019383  0.86759800  1.0
  Cl  Cl9  1  0.23071667  0.94686050  0.36759800  1.0
  Cl  Cl9  1  0.23071667  0.94686050  0.86759800  1.0
  Cl  Cl9  1  0.39738333  0.11352717  0.36759800  1.0
  Cl  Cl9  1  0.39738333  0.11352717  0.86759800  1.0
  Cl  Cl9  1  0.39738333  0.28019383  0.36759800  1.0
  Cl  Cl9  1  0.39738333  0.28019383  0.86759800  1.0
  Cl  Cl9  1  0.39738333  0.44686050  0.36759800  1.0
  Cl  Cl9  1  0.39738333  0.44686050  0.86759800  1.0
  Cl  Cl9  1  0.39738333  0.61352717  0.36759800  1.0
  Cl  Cl9  1  0.39738333  0.61352717  0.86759800  1.0
  Cl  Cl9  1  0.39738333  0.78019383  0.36759800  1.0
  Cl  Cl9  1  0.39738333  0.78019383  0.86759800  1.0
  Cl  Cl9  1  0.39738333  0.94686050  0.36759800  1.0
  Cl  Cl9  1  0.39738333  0.94686050  0.86759800  1.0
  Cl  Cl9  1  0.56405000  0.11352717  0.36759800  1.0
  Cl  Cl9  1  0.56405000  0.11352717  0.86759800  1.0
  Cl  Cl9  1  0.56405000  0.28019383  0.36759800  1.0
  Cl  Cl9  1  0.56405000  0.28019383  0.86759800  1.0
  Cl  Cl9  1  0.56405000  0.44686050  0.36759800  1.0
  Cl  Cl9  1  0.56405000  0.44686050  0.86759800  1.0
  Cl  Cl9  1  0.56405000  0.61352717  0.36759800  1.0
  Cl  Cl9  1  0.56405000  0.61352717  0.86759800  1.0
  Cl  Cl9  1  0.56405000  0.78019383  0.36759800  1.0
  Cl  Cl9  1  0.56405000  0.78019383  0.86759800  1.0
  Cl  Cl9  1  0.56405000  0.94686050  0.36759800  1.0
  Cl  Cl9  1  0.56405000  0.94686050  0.86759800  1.0
  Cl  Cl9  1  0.73071667  0.11352717  0.36759800  1.0
  Cl  Cl9  1  0.73071667  0.11352717  0.86759800  1.0
  Cl  Cl9  1  0.73071667  0.28019383  0.36759800  1.0
  Cl  Cl9  1  0.73071667  0.28019383  0.86759800  1.0
  Cl  Cl9  1  0.73071667  0.44686050  0.36759800  1.0
  Cl  Cl9  1  0.73071667  0.44686050  0.86759800  1.0
  Cl  Cl9  1  0.73071667  0.61352717  0.36759800  1.0
  Cl  Cl9  1  0.73071667  0.61352717  0.86759800  1.0
  Cl  Cl9  1  0.73071667  0.78019383  0.36759800  1.0
  Cl  Cl9  1  0.73071667  0.78019383  0.86759800  1.0
  Cl  Cl9  1  0.73071667  0.94686050  0.36759800  1.0
  Cl  Cl9  1  0.73071667  0.94686050  0.86759800  1.0
  Cl  Cl9  1  0.89738333  0.11352717  0.36759800  1.0
  Cl  Cl9  1  0.89738333  0.11352717  0.86759800  1.0
  Cl  Cl9  1  0.89738333  0.28019383  0.36759800  1.0
  Cl  Cl9  1  0.89738333  0.28019383  0.86759800  1.0
  Cl  Cl9  1  0.89738333  0.44686050  0.36759800  1.0
  Cl  Cl9  1  0.89738333  0.44686050  0.86759800  1.0
  Cl  Cl9  1  0.89738333  0.61352717  0.36759800  1.0
  Cl  Cl9  1  0.89738333  0.61352717  0.86759800  1.0
  Cl  Cl9  1  0.89738333  0.78019383  0.36759800  1.0
  Cl  Cl9  1  0.89738333  0.78019383  0.86759800  1.0
  Cl  Cl9  1  0.89738333  0.94686050  0.36759800  1.0
  Cl  Cl9  1  0.89738333  0.94686050  0.86759800  1.0
  Cl  Cl10  1  0.06405000  0.13647283  0.11759800  1.0
  Cl  Cl10  1  0.06405000  0.13647283  0.61759800  1.0
  Cl  Cl10  1  0.06405000  0.30313950  0.11759800  1.0
  Cl  Cl10  1  0.06405000  0.30313950  0.61759800  1.0
  Cl  Cl10  1  0.06405000  0.46980617  0.11759800  1.0
  Cl  Cl10  1  0.06405000  0.46980617  0.61759800  1.0
  Cl  Cl10  1  0.06405000  0.63647283  0.11759800  1.0
  Cl  Cl10  1  0.06405000  0.63647283  0.61759800  1.0
  Cl  Cl10  1  0.06405000  0.80313950  0.11759800  1.0
  Cl  Cl10  1  0.06405000  0.80313950  0.61759800  1.0
  Cl  Cl10  1  0.06405000  0.96980617  0.11759800  1.0
  Cl  Cl10  1  0.06405000  0.96980617  0.61759800  1.0
  Cl  Cl10  1  0.23071667  0.13647283  0.11759800  1.0
  Cl  Cl10  1  0.23071667  0.13647283  0.61759800  1.0
  Cl  Cl10  1  0.23071667  0.30313950  0.11759800  1.0
  Cl  Cl10  1  0.23071667  0.30313950  0.61759800  1.0
  Cl  Cl10  1  0.23071667  0.46980617  0.11759800  1.0
  Cl  Cl10  1  0.23071667  0.46980617  0.61759800  1.0
  Cl  Cl10  1  0.23071667  0.63647283  0.11759800  1.0
  Cl  Cl10  1  0.23071667  0.63647283  0.61759800  1.0
  Cl  Cl10  1  0.23071667  0.80313950  0.11759800  1.0
  Cl  Cl10  1  0.23071667  0.80313950  0.61759800  1.0
  Cl  Cl10  1  0.23071667  0.96980617  0.11759800  1.0
  Cl  Cl10  1  0.23071667  0.96980617  0.61759800  1.0
  Cl  Cl10  1  0.39738333  0.13647283  0.11759800  1.0
  Cl  Cl10  1  0.39738333  0.13647283  0.61759800  1.0
  Cl  Cl10  1  0.39738333  0.30313950  0.11759800  1.0
  Cl  Cl10  1  0.39738333  0.30313950  0.61759800  1.0
  Cl  Cl10  1  0.39738333  0.46980617  0.11759800  1.0
  Cl  Cl10  1  0.39738333  0.46980617  0.61759800  1.0
  Cl  Cl10  1  0.39738333  0.63647283  0.11759800  1.0
  Cl  Cl10  1  0.39738333  0.63647283  0.61759800  1.0
  Cl  Cl10  1  0.39738333  0.80313950  0.11759800  1.0
  Cl  Cl10  1  0.39738333  0.80313950  0.61759800  1.0
  Cl  Cl10  1  0.39738333  0.96980617  0.11759800  1.0
  Cl  Cl10  1  0.39738333  0.96980617  0.61759800  1.0
  Cl  Cl10  1  0.56405000  0.13647283  0.11759800  1.0
  Cl  Cl10  1  0.56405000  0.13647283  0.61759800  1.0
  Cl  Cl10  1  0.56405000  0.30313950  0.11759800  1.0
  Cl  Cl10  1  0.56405000  0.30313950  0.61759800  1.0
  Cl  Cl10  1  0.56405000  0.46980617  0.11759800  1.0
  Cl  Cl10  1  0.56405000  0.46980617  0.61759800  1.0
  Cl  Cl10  1  0.56405000  0.63647283  0.11759800  1.0
  Cl  Cl10  1  0.56405000  0.63647283  0.61759800  1.0
  Cl  Cl10  1  0.56405000  0.80313950  0.11759800  1.0
  Cl  Cl10  1  0.56405000  0.80313950  0.61759800  1.0
  Cl  Cl10  1  0.56405000  0.96980617  0.11759800  1.0
  Cl  Cl10  1  0.56405000  0.96980617  0.61759800  1.0
  Cl  Cl10  1  0.73071667  0.13647283  0.11759800  1.0
  Cl  Cl10  1  0.73071667  0.13647283  0.61759800  1.0
  Cl  Cl10  1  0.73071667  0.30313950  0.11759800  1.0
  Cl  Cl10  1  0.73071667  0.30313950  0.61759800  1.0
  Cl  Cl10  1  0.73071667  0.46980617  0.11759800  1.0
  Cl  Cl10  1  0.73071667  0.46980617  0.61759800  1.0
  Cl  Cl10  1  0.73071667  0.63647283  0.11759800  1.0
  Cl  Cl10  1  0.73071667  0.63647283  0.61759800  1.0
  Cl  Cl10  1  0.73071667  0.80313950  0.11759800  1.0
  Cl  Cl10  1  0.73071667  0.80313950  0.61759800  1.0
  Cl  Cl10  1  0.73071667  0.96980617  0.11759800  1.0
  Cl  Cl10  1  0.73071667  0.96980617  0.61759800  1.0
  Cl  Cl10  1  0.89738333  0.13647283  0.11759800  1.0
  Cl  Cl10  1  0.89738333  0.13647283  0.61759800  1.0
  Cl  Cl10  1  0.89738333  0.30313950  0.11759800  1.0
  Cl  Cl10  1  0.89738333  0.30313950  0.61759800  1.0
  Cl  Cl10  1  0.89738333  0.46980617  0.11759800  1.0
  Cl  Cl10  1  0.89738333  0.46980617  0.61759800  1.0
  Cl  Cl10  1  0.89738333  0.63647283  0.11759800  1.0
  Cl  Cl10  1  0.89738333  0.63647283  0.61759800  1.0
  Cl  Cl10  1  0.89738333  0.80313950  0.11759800  1.0
  Cl  Cl10  1  0.89738333  0.80313950  0.61759800  1.0
  Cl  Cl10  1  0.89738333  0.96980617  0.11759800  1.0
  Cl  Cl10  1  0.89738333  0.96980617  0.61759800  1.0
  Cl  Cl11  1  0.10261667  0.05313950  0.13240200  1.0
  Cl  Cl11  1  0.10261667  0.05313950  0.63240200  1.0
  Cl  Cl11  1  0.10261667  0.21980617  0.13240200  1.0
  Cl  Cl11  1  0.10261667  0.21980617  0.63240200  1.0
  Cl  Cl11  1  0.10261667  0.38647283  0.13240200  1.0
  Cl  Cl11  1  0.10261667  0.38647283  0.63240200  1.0
  Cl  Cl11  1  0.10261667  0.55313950  0.13240200  1.0
  Cl  Cl11  1  0.10261667  0.55313950  0.63240200  1.0
  Cl  Cl11  1  0.10261667  0.71980617  0.13240200  1.0
  Cl  Cl11  1  0.10261667  0.71980617  0.63240200  1.0
  Cl  Cl11  1  0.10261667  0.88647283  0.13240200  1.0
  Cl  Cl11  1  0.10261667  0.88647283  0.63240200  1.0
  Cl  Cl11  1  0.26928333  0.05313950  0.13240200  1.0
  Cl  Cl11  1  0.26928333  0.05313950  0.63240200  1.0
  Cl  Cl11  1  0.26928333  0.21980617  0.13240200  1.0
  Cl  Cl11  1  0.26928333  0.21980617  0.63240200  1.0
  Cl  Cl11  1  0.26928333  0.38647283  0.13240200  1.0
  Cl  Cl11  1  0.26928333  0.38647283  0.63240200  1.0
  Cl  Cl11  1  0.26928333  0.55313950  0.13240200  1.0
  Cl  Cl11  1  0.26928333  0.55313950  0.63240200  1.0
  Cl  Cl11  1  0.26928333  0.71980617  0.13240200  1.0
  Cl  Cl11  1  0.26928333  0.71980617  0.63240200  1.0
  Cl  Cl11  1  0.26928333  0.88647283  0.13240200  1.0
  Cl  Cl11  1  0.26928333  0.88647283  0.63240200  1.0
  Cl  Cl11  1  0.43595000  0.05313950  0.13240200  1.0
  Cl  Cl11  1  0.43595000  0.05313950  0.63240200  1.0
  Cl  Cl11  1  0.43595000  0.21980617  0.13240200  1.0
  Cl  Cl11  1  0.43595000  0.21980617  0.63240200  1.0
  Cl  Cl11  1  0.43595000  0.38647283  0.13240200  1.0
  Cl  Cl11  1  0.43595000  0.38647283  0.63240200  1.0
  Cl  Cl11  1  0.43595000  0.55313950  0.13240200  1.0
  Cl  Cl11  1  0.43595000  0.55313950  0.63240200  1.0
  Cl  Cl11  1  0.43595000  0.71980617  0.13240200  1.0
  Cl  Cl11  1  0.43595000  0.71980617  0.63240200  1.0
  Cl  Cl11  1  0.43595000  0.88647283  0.13240200  1.0
  Cl  Cl11  1  0.43595000  0.88647283  0.63240200  1.0
  Cl  Cl11  1  0.60261667  0.05313950  0.13240200  1.0
  Cl  Cl11  1  0.60261667  0.05313950  0.63240200  1.0
  Cl  Cl11  1  0.60261667  0.21980617  0.13240200  1.0
  Cl  Cl11  1  0.60261667  0.21980617  0.63240200  1.0
  Cl  Cl11  1  0.60261667  0.38647283  0.13240200  1.0
  Cl  Cl11  1  0.60261667  0.38647283  0.63240200  1.0
  Cl  Cl11  1  0.60261667  0.55313950  0.13240200  1.0
  Cl  Cl11  1  0.60261667  0.55313950  0.63240200  1.0
  Cl  Cl11  1  0.60261667  0.71980617  0.13240200  1.0
  Cl  Cl11  1  0.60261667  0.71980617  0.63240200  1.0
  Cl  Cl11  1  0.60261667  0.88647283  0.13240200  1.0
  Cl  Cl11  1  0.60261667  0.88647283  0.63240200  1.0
  Cl  Cl11  1  0.76928333  0.05313950  0.13240200  1.0
  Cl  Cl11  1  0.76928333  0.05313950  0.63240200  1.0
  Cl  Cl11  1  0.76928333  0.21980617  0.13240200  1.0
  Cl  Cl11  1  0.76928333  0.21980617  0.63240200  1.0
  Cl  Cl11  1  0.76928333  0.38647283  0.13240200  1.0
  Cl  Cl11  1  0.76928333  0.38647283  0.63240200  1.0
  Cl  Cl11  1  0.76928333  0.55313950  0.13240200  1.0
  Cl  Cl11  1  0.76928333  0.55313950  0.63240200  1.0
  Cl  Cl11  1  0.76928333  0.71980617  0.13240200  1.0
  Cl  Cl11  1  0.76928333  0.71980617  0.63240200  1.0
  Cl  Cl11  1  0.76928333  0.88647283  0.13240200  1.0
  Cl  Cl11  1  0.76928333  0.88647283  0.63240200  1.0
  Cl  Cl11  1  0.93595000  0.05313950  0.13240200  1.0
  Cl  Cl11  1  0.93595000  0.05313950  0.63240200  1.0
  Cl  Cl11  1  0.93595000  0.21980617  0.13240200  1.0
  Cl  Cl11  1  0.93595000  0.21980617  0.63240200  1.0
  Cl  Cl11  1  0.93595000  0.38647283  0.13240200  1.0
  Cl  Cl11  1  0.93595000  0.38647283  0.63240200  1.0
  Cl  Cl11  1  0.93595000  0.55313950  0.13240200  1.0
  Cl  Cl11  1  0.93595000  0.55313950  0.63240200  1.0
  Cl  Cl11  1  0.93595000  0.71980617  0.13240200  1.0
  Cl  Cl11  1  0.93595000  0.71980617  0.63240200  1.0
  Cl  Cl11  1  0.93595000  0.88647283  0.13240200  1.0
  Cl  Cl11  1  0.93595000  0.88647283  0.63240200  1.0
  Cl  Cl12  1  0.07708383  0.06587783  0.45267200  1.0
  Cl  Cl12  1  0.07708383  0.06587783  0.95267200  1.0
  Cl  Cl12  1  0.07708383  0.23254450  0.45267200  1.0
  Cl  Cl12  1  0.07708383  0.23254450  0.95267200  1.0
  Cl  Cl12  1  0.07708383  0.39921117  0.45267200  1.0
  Cl  Cl12  1  0.07708383  0.39921117  0.95267200  1.0
  Cl  Cl12  1  0.07708383  0.56587783  0.45267200  1.0
  Cl  Cl12  1  0.07708383  0.56587783  0.95267200  1.0
  Cl  Cl12  1  0.07708383  0.73254450  0.45267200  1.0
  Cl  Cl12  1  0.07708383  0.73254450  0.95267200  1.0
  Cl  Cl12  1  0.07708383  0.89921117  0.45267200  1.0
  Cl  Cl12  1  0.07708383  0.89921117  0.95267200  1.0
  Cl  Cl12  1  0.24375050  0.06587783  0.45267200  1.0
  Cl  Cl12  1  0.24375050  0.06587783  0.95267200  1.0
  Cl  Cl12  1  0.24375050  0.23254450  0.45267200  1.0
  Cl  Cl12  1  0.24375050  0.23254450  0.95267200  1.0
  Cl  Cl12  1  0.24375050  0.39921117  0.45267200  1.0
  Cl  Cl12  1  0.24375050  0.39921117  0.95267200  1.0
  Cl  Cl12  1  0.24375050  0.56587783  0.45267200  1.0
  Cl  Cl12  1  0.24375050  0.56587783  0.95267200  1.0
  Cl  Cl12  1  0.24375050  0.73254450  0.45267200  1.0
  Cl  Cl12  1  0.24375050  0.73254450  0.95267200  1.0
  Cl  Cl12  1  0.24375050  0.89921117  0.45267200  1.0
  Cl  Cl12  1  0.24375050  0.89921117  0.95267200  1.0
  Cl  Cl12  1  0.41041717  0.06587783  0.45267200  1.0
  Cl  Cl12  1  0.41041717  0.06587783  0.95267200  1.0
  Cl  Cl12  1  0.41041717  0.23254450  0.45267200  1.0
  Cl  Cl12  1  0.41041717  0.23254450  0.95267200  1.0
  Cl  Cl12  1  0.41041717  0.39921117  0.45267200  1.0
  Cl  Cl12  1  0.41041717  0.39921117  0.95267200  1.0
  Cl  Cl12  1  0.41041717  0.56587783  0.45267200  1.0
  Cl  Cl12  1  0.41041717  0.56587783  0.95267200  1.0
  Cl  Cl12  1  0.41041717  0.73254450  0.45267200  1.0
  Cl  Cl12  1  0.41041717  0.73254450  0.95267200  1.0
  Cl  Cl12  1  0.41041717  0.89921117  0.45267200  1.0
  Cl  Cl12  1  0.41041717  0.89921117  0.95267200  1.0
  Cl  Cl12  1  0.57708383  0.06587783  0.45267200  1.0
  Cl  Cl12  1  0.57708383  0.06587783  0.95267200  1.0
  Cl  Cl12  1  0.57708383  0.23254450  0.45267200  1.0
  Cl  Cl12  1  0.57708383  0.23254450  0.95267200  1.0
  Cl  Cl12  1  0.57708383  0.39921117  0.45267200  1.0
  Cl  Cl12  1  0.57708383  0.39921117  0.95267200  1.0
  Cl  Cl12  1  0.57708383  0.56587783  0.45267200  1.0
  Cl  Cl12  1  0.57708383  0.56587783  0.95267200  1.0
  Cl  Cl12  1  0.57708383  0.73254450  0.45267200  1.0
  Cl  Cl12  1  0.57708383  0.73254450  0.95267200  1.0
  Cl  Cl12  1  0.57708383  0.89921117  0.45267200  1.0
  Cl  Cl12  1  0.57708383  0.89921117  0.95267200  1.0
  Cl  Cl12  1  0.74375050  0.06587783  0.45267200  1.0
  Cl  Cl12  1  0.74375050  0.06587783  0.95267200  1.0
  Cl  Cl12  1  0.74375050  0.23254450  0.45267200  1.0
  Cl  Cl12  1  0.74375050  0.23254450  0.95267200  1.0
  Cl  Cl12  1  0.74375050  0.39921117  0.45267200  1.0
  Cl  Cl12  1  0.74375050  0.39921117  0.95267200  1.0
  Cl  Cl12  1  0.74375050  0.56587783  0.45267200  1.0
  Cl  Cl12  1  0.74375050  0.56587783  0.95267200  1.0
  Cl  Cl12  1  0.74375050  0.73254450  0.45267200  1.0
  Cl  Cl12  1  0.74375050  0.73254450  0.95267200  1.0
  Cl  Cl12  1  0.74375050  0.89921117  0.45267200  1.0
  Cl  Cl12  1  0.74375050  0.89921117  0.95267200  1.0
  Cl  Cl12  1  0.91041717  0.06587783  0.45267200  1.0
  Cl  Cl12  1  0.91041717  0.06587783  0.95267200  1.0
  Cl  Cl12  1  0.91041717  0.23254450  0.45267200  1.0
  Cl  Cl12  1  0.91041717  0.23254450  0.95267200  1.0
  Cl  Cl12  1  0.91041717  0.39921117  0.45267200  1.0
  Cl  Cl12  1  0.91041717  0.39921117  0.95267200  1.0
  Cl  Cl12  1  0.91041717  0.56587783  0.45267200  1.0
  Cl  Cl12  1  0.91041717  0.56587783  0.95267200  1.0
  Cl  Cl12  1  0.91041717  0.73254450  0.45267200  1.0
  Cl  Cl12  1  0.91041717  0.73254450  0.95267200  1.0
  Cl  Cl12  1  0.91041717  0.89921117  0.45267200  1.0
  Cl  Cl12  1  0.91041717  0.89921117  0.95267200  1.0
  Cl  Cl13  1  0.08958283  0.14921117  0.29732800  1.0
  Cl  Cl13  1  0.08958283  0.14921117  0.79732800  1.0
  Cl  Cl13  1  0.08958283  0.31587783  0.29732800  1.0
  Cl  Cl13  1  0.08958283  0.31587783  0.79732800  1.0
  Cl  Cl13  1  0.08958283  0.48254450  0.29732800  1.0
  Cl  Cl13  1  0.08958283  0.48254450  0.79732800  1.0
  Cl  Cl13  1  0.08958283  0.64921117  0.29732800  1.0
  Cl  Cl13  1  0.08958283  0.64921117  0.79732800  1.0
  Cl  Cl13  1  0.08958283  0.81587783  0.29732800  1.0
  Cl  Cl13  1  0.08958283  0.81587783  0.79732800  1.0
  Cl  Cl13  1  0.08958283  0.98254450  0.29732800  1.0
  Cl  Cl13  1  0.08958283  0.98254450  0.79732800  1.0
  Cl  Cl13  1  0.25624950  0.14921117  0.29732800  1.0
  Cl  Cl13  1  0.25624950  0.14921117  0.79732800  1.0
  Cl  Cl13  1  0.25624950  0.31587783  0.29732800  1.0
  Cl  Cl13  1  0.25624950  0.31587783  0.79732800  1.0
  Cl  Cl13  1  0.25624950  0.48254450  0.29732800  1.0
  Cl  Cl13  1  0.25624950  0.48254450  0.79732800  1.0
  Cl  Cl13  1  0.25624950  0.64921117  0.29732800  1.0
  Cl  Cl13  1  0.25624950  0.64921117  0.79732800  1.0
  Cl  Cl13  1  0.25624950  0.81587783  0.29732800  1.0
  Cl  Cl13  1  0.25624950  0.81587783  0.79732800  1.0
  Cl  Cl13  1  0.25624950  0.98254450  0.29732800  1.0
  Cl  Cl13  1  0.25624950  0.98254450  0.79732800  1.0
  Cl  Cl13  1  0.42291617  0.14921117  0.29732800  1.0
  Cl  Cl13  1  0.42291617  0.14921117  0.79732800  1.0
  Cl  Cl13  1  0.42291617  0.31587783  0.29732800  1.0
  Cl  Cl13  1  0.42291617  0.31587783  0.79732800  1.0
  Cl  Cl13  1  0.42291617  0.48254450  0.29732800  1.0
  Cl  Cl13  1  0.42291617  0.48254450  0.79732800  1.0
  Cl  Cl13  1  0.42291617  0.64921117  0.29732800  1.0
  Cl  Cl13  1  0.42291617  0.64921117  0.79732800  1.0
  Cl  Cl13  1  0.42291617  0.81587783  0.29732800  1.0
  Cl  Cl13  1  0.42291617  0.81587783  0.79732800  1.0
  Cl  Cl13  1  0.42291617  0.98254450  0.29732800  1.0
  Cl  Cl13  1  0.42291617  0.98254450  0.79732800  1.0
  Cl  Cl13  1  0.58958283  0.14921117  0.29732800  1.0
  Cl  Cl13  1  0.58958283  0.14921117  0.79732800  1.0
  Cl  Cl13  1  0.58958283  0.31587783  0.29732800  1.0
  Cl  Cl13  1  0.58958283  0.31587783  0.79732800  1.0
  Cl  Cl13  1  0.58958283  0.48254450  0.29732800  1.0
  Cl  Cl13  1  0.58958283  0.48254450  0.79732800  1.0
  Cl  Cl13  1  0.58958283  0.64921117  0.29732800  1.0
  Cl  Cl13  1  0.58958283  0.64921117  0.79732800  1.0
  Cl  Cl13  1  0.58958283  0.81587783  0.29732800  1.0
  Cl  Cl13  1  0.58958283  0.81587783  0.79732800  1.0
  Cl  Cl13  1  0.58958283  0.98254450  0.29732800  1.0
  Cl  Cl13  1  0.58958283  0.98254450  0.79732800  1.0
  Cl  Cl13  1  0.75624950  0.14921117  0.29732800  1.0
  Cl  Cl13  1  0.75624950  0.14921117  0.79732800  1.0
  Cl  Cl13  1  0.75624950  0.31587783  0.29732800  1.0
  Cl  Cl13  1  0.75624950  0.31587783  0.79732800  1.0
  Cl  Cl13  1  0.75624950  0.48254450  0.29732800  1.0
  Cl  Cl13  1  0.75624950  0.48254450  0.79732800  1.0
  Cl  Cl13  1  0.75624950  0.64921117  0.29732800  1.0
  Cl  Cl13  1  0.75624950  0.64921117  0.79732800  1.0
  Cl  Cl13  1  0.75624950  0.81587783  0.29732800  1.0
  Cl  Cl13  1  0.75624950  0.81587783  0.79732800  1.0
  Cl  Cl13  1  0.75624950  0.98254450  0.29732800  1.0
  Cl  Cl13  1  0.75624950  0.98254450  0.79732800  1.0
  Cl  Cl13  1  0.92291617  0.14921117  0.29732800  1.0
  Cl  Cl13  1  0.92291617  0.14921117  0.79732800  1.0
  Cl  Cl13  1  0.92291617  0.31587783  0.29732800  1.0
  Cl  Cl13  1  0.92291617  0.31587783  0.79732800  1.0
  Cl  Cl13  1  0.92291617  0.48254450  0.29732800  1.0
  Cl  Cl13  1  0.92291617  0.48254450  0.79732800  1.0
  Cl  Cl13  1  0.92291617  0.64921117  0.29732800  1.0
  Cl  Cl13  1  0.92291617  0.64921117  0.79732800  1.0
  Cl  Cl13  1  0.92291617  0.81587783  0.29732800  1.0
  Cl  Cl13  1  0.92291617  0.81587783  0.79732800  1.0
  Cl  Cl13  1  0.92291617  0.98254450  0.29732800  1.0
  Cl  Cl13  1  0.92291617  0.98254450  0.79732800  1.0
  Cl  Cl14  1  0.08958283  0.10078883  0.04732800  1.0
  Cl  Cl14  1  0.08958283  0.10078883  0.54732800  1.0
  Cl  Cl14  1  0.08958283  0.26745550  0.04732800  1.0
  Cl  Cl14  1  0.08958283  0.26745550  0.54732800  1.0
  Cl  Cl14  1  0.08958283  0.43412217  0.04732800  1.0
  Cl  Cl14  1  0.08958283  0.43412217  0.54732800  1.0
  Cl  Cl14  1  0.08958283  0.60078883  0.04732800  1.0
  Cl  Cl14  1  0.08958283  0.60078883  0.54732800  1.0
  Cl  Cl14  1  0.08958283  0.76745550  0.04732800  1.0
  Cl  Cl14  1  0.08958283  0.76745550  0.54732800  1.0
  Cl  Cl14  1  0.08958283  0.93412217  0.04732800  1.0
  Cl  Cl14  1  0.08958283  0.93412217  0.54732800  1.0
  Cl  Cl14  1  0.25624950  0.10078883  0.04732800  1.0
  Cl  Cl14  1  0.25624950  0.10078883  0.54732800  1.0
  Cl  Cl14  1  0.25624950  0.26745550  0.04732800  1.0
  Cl  Cl14  1  0.25624950  0.26745550  0.54732800  1.0
  Cl  Cl14  1  0.25624950  0.43412217  0.04732800  1.0
  Cl  Cl14  1  0.25624950  0.43412217  0.54732800  1.0
  Cl  Cl14  1  0.25624950  0.60078883  0.04732800  1.0
  Cl  Cl14  1  0.25624950  0.60078883  0.54732800  1.0
  Cl  Cl14  1  0.25624950  0.76745550  0.04732800  1.0
  Cl  Cl14  1  0.25624950  0.76745550  0.54732800  1.0
  Cl  Cl14  1  0.25624950  0.93412217  0.04732800  1.0
  Cl  Cl14  1  0.25624950  0.93412217  0.54732800  1.0
  Cl  Cl14  1  0.42291617  0.10078883  0.04732800  1.0
  Cl  Cl14  1  0.42291617  0.10078883  0.54732800  1.0
  Cl  Cl14  1  0.42291617  0.26745550  0.04732800  1.0
  Cl  Cl14  1  0.42291617  0.26745550  0.54732800  1.0
  Cl  Cl14  1  0.42291617  0.43412217  0.04732800  1.0
  Cl  Cl14  1  0.42291617  0.43412217  0.54732800  1.0
  Cl  Cl14  1  0.42291617  0.60078883  0.04732800  1.0
  Cl  Cl14  1  0.42291617  0.60078883  0.54732800  1.0
  Cl  Cl14  1  0.42291617  0.76745550  0.04732800  1.0
  Cl  Cl14  1  0.42291617  0.76745550  0.54732800  1.0
  Cl  Cl14  1  0.42291617  0.93412217  0.04732800  1.0
  Cl  Cl14  1  0.42291617  0.93412217  0.54732800  1.0
  Cl  Cl14  1  0.58958283  0.10078883  0.04732800  1.0
  Cl  Cl14  1  0.58958283  0.10078883  0.54732800  1.0
  Cl  Cl14  1  0.58958283  0.26745550  0.04732800  1.0
  Cl  Cl14  1  0.58958283  0.26745550  0.54732800  1.0
  Cl  Cl14  1  0.58958283  0.43412217  0.04732800  1.0
  Cl  Cl14  1  0.58958283  0.43412217  0.54732800  1.0
  Cl  Cl14  1  0.58958283  0.60078883  0.04732800  1.0
  Cl  Cl14  1  0.58958283  0.60078883  0.54732800  1.0
  Cl  Cl14  1  0.58958283  0.76745550  0.04732800  1.0
  Cl  Cl14  1  0.58958283  0.76745550  0.54732800  1.0
  Cl  Cl14  1  0.58958283  0.93412217  0.04732800  1.0
  Cl  Cl14  1  0.58958283  0.93412217  0.54732800  1.0
  Cl  Cl14  1  0.75624950  0.10078883  0.04732800  1.0
  Cl  Cl14  1  0.75624950  0.10078883  0.54732800  1.0
  Cl  Cl14  1  0.75624950  0.26745550  0.04732800  1.0
  Cl  Cl14  1  0.75624950  0.26745550  0.54732800  1.0
  Cl  Cl14  1  0.75624950  0.43412217  0.04732800  1.0
  Cl  Cl14  1  0.75624950  0.43412217  0.54732800  1.0
  Cl  Cl14  1  0.75624950  0.60078883  0.04732800  1.0
  Cl  Cl14  1  0.75624950  0.60078883  0.54732800  1.0
  Cl  Cl14  1  0.75624950  0.76745550  0.04732800  1.0
  Cl  Cl14  1  0.75624950  0.76745550  0.54732800  1.0
  Cl  Cl14  1  0.75624950  0.93412217  0.04732800  1.0
  Cl  Cl14  1  0.75624950  0.93412217  0.54732800  1.0
  Cl  Cl14  1  0.92291617  0.10078883  0.04732800  1.0
  Cl  Cl14  1  0.92291617  0.10078883  0.54732800  1.0
  Cl  Cl14  1  0.92291617  0.26745550  0.04732800  1.0
  Cl  Cl14  1  0.92291617  0.26745550  0.54732800  1.0
  Cl  Cl14  1  0.92291617  0.43412217  0.04732800  1.0
  Cl  Cl14  1  0.92291617  0.43412217  0.54732800  1.0
  Cl  Cl14  1  0.92291617  0.60078883  0.04732800  1.0
  Cl  Cl14  1  0.92291617  0.60078883  0.54732800  1.0
  Cl  Cl14  1  0.92291617  0.76745550  0.04732800  1.0
  Cl  Cl14  1  0.92291617  0.76745550  0.54732800  1.0
  Cl  Cl14  1  0.92291617  0.93412217  0.04732800  1.0
  Cl  Cl14  1  0.92291617  0.93412217  0.54732800  1.0
  Cl  Cl15  1  0.07708383  0.01745550  0.20267200  1.0
  Cl  Cl15  1  0.07708383  0.01745550  0.70267200  1.0
  Cl  Cl15  1  0.07708383  0.18412217  0.20267200  1.0
  Cl  Cl15  1  0.07708383  0.18412217  0.70267200  1.0
  Cl  Cl15  1  0.07708383  0.35078883  0.20267200  1.0
  Cl  Cl15  1  0.07708383  0.35078883  0.70267200  1.0
  Cl  Cl15  1  0.07708383  0.51745550  0.20267200  1.0
  Cl  Cl15  1  0.07708383  0.51745550  0.70267200  1.0
  Cl  Cl15  1  0.07708383  0.68412217  0.20267200  1.0
  Cl  Cl15  1  0.07708383  0.68412217  0.70267200  1.0
  Cl  Cl15  1  0.07708383  0.85078883  0.20267200  1.0
  Cl  Cl15  1  0.07708383  0.85078883  0.70267200  1.0
  Cl  Cl15  1  0.24375050  0.01745550  0.20267200  1.0
  Cl  Cl15  1  0.24375050  0.01745550  0.70267200  1.0
  Cl  Cl15  1  0.24375050  0.18412217  0.20267200  1.0
  Cl  Cl15  1  0.24375050  0.18412217  0.70267200  1.0
  Cl  Cl15  1  0.24375050  0.35078883  0.20267200  1.0
  Cl  Cl15  1  0.24375050  0.35078883  0.70267200  1.0
  Cl  Cl15  1  0.24375050  0.51745550  0.20267200  1.0
  Cl  Cl15  1  0.24375050  0.51745550  0.70267200  1.0
  Cl  Cl15  1  0.24375050  0.68412217  0.20267200  1.0
  Cl  Cl15  1  0.24375050  0.68412217  0.70267200  1.0
  Cl  Cl15  1  0.24375050  0.85078883  0.20267200  1.0
  Cl  Cl15  1  0.24375050  0.85078883  0.70267200  1.0
  Cl  Cl15  1  0.41041717  0.01745550  0.20267200  1.0
  Cl  Cl15  1  0.41041717  0.01745550  0.70267200  1.0
  Cl  Cl15  1  0.41041717  0.18412217  0.20267200  1.0
  Cl  Cl15  1  0.41041717  0.18412217  0.70267200  1.0
  Cl  Cl15  1  0.41041717  0.35078883  0.20267200  1.0
  Cl  Cl15  1  0.41041717  0.35078883  0.70267200  1.0
  Cl  Cl15  1  0.41041717  0.51745550  0.20267200  1.0
  Cl  Cl15  1  0.41041717  0.51745550  0.70267200  1.0
  Cl  Cl15  1  0.41041717  0.68412217  0.20267200  1.0
  Cl  Cl15  1  0.41041717  0.68412217  0.70267200  1.0
  Cl  Cl15  1  0.41041717  0.85078883  0.20267200  1.0
  Cl  Cl15  1  0.41041717  0.85078883  0.70267200  1.0
  Cl  Cl15  1  0.57708383  0.01745550  0.20267200  1.0
  Cl  Cl15  1  0.57708383  0.01745550  0.70267200  1.0
  Cl  Cl15  1  0.57708383  0.18412217  0.20267200  1.0
  Cl  Cl15  1  0.57708383  0.18412217  0.70267200  1.0
  Cl  Cl15  1  0.57708383  0.35078883  0.20267200  1.0
  Cl  Cl15  1  0.57708383  0.35078883  0.70267200  1.0
  Cl  Cl15  1  0.57708383  0.51745550  0.20267200  1.0
  Cl  Cl15  1  0.57708383  0.51745550  0.70267200  1.0
  Cl  Cl15  1  0.57708383  0.68412217  0.20267200  1.0
  Cl  Cl15  1  0.57708383  0.68412217  0.70267200  1.0
  Cl  Cl15  1  0.57708383  0.85078883  0.20267200  1.0
  Cl  Cl15  1  0.57708383  0.85078883  0.70267200  1.0
  Cl  Cl15  1  0.74375050  0.01745550  0.20267200  1.0
  Cl  Cl15  1  0.74375050  0.01745550  0.70267200  1.0
  Cl  Cl15  1  0.74375050  0.18412217  0.20267200  1.0
  Cl  Cl15  1  0.74375050  0.18412217  0.70267200  1.0
  Cl  Cl15  1  0.74375050  0.35078883  0.20267200  1.0
  Cl  Cl15  1  0.74375050  0.35078883  0.70267200  1.0
  Cl  Cl15  1  0.74375050  0.51745550  0.20267200  1.0
  Cl  Cl15  1  0.74375050  0.51745550  0.70267200  1.0
  Cl  Cl15  1  0.74375050  0.68412217  0.20267200  1.0
  Cl  Cl15  1  0.74375050  0.68412217  0.70267200  1.0
  Cl  Cl15  1  0.74375050  0.85078883  0.20267200  1.0
  Cl  Cl15  1  0.74375050  0.85078883  0.70267200  1.0
  Cl  Cl15  1  0.91041717  0.01745550  0.20267200  1.0
  Cl  Cl15  1  0.91041717  0.01745550  0.70267200  1.0
  Cl  Cl15  1  0.91041717  0.18412217  0.20267200  1.0
  Cl  Cl15  1  0.91041717  0.18412217  0.70267200  1.0
  Cl  Cl15  1  0.91041717  0.35078883  0.20267200  1.0
  Cl  Cl15  1  0.91041717  0.35078883  0.70267200  1.0
  Cl  Cl15  1  0.91041717  0.51745550  0.20267200  1.0
  Cl  Cl15  1  0.91041717  0.51745550  0.70267200  1.0
  Cl  Cl15  1  0.91041717  0.68412217  0.20267200  1.0
  Cl  Cl15  1  0.91041717  0.68412217  0.70267200  1.0
  Cl  Cl15  1  0.91041717  0.85078883  0.20267200  1.0
  Cl  Cl15  1  0.91041717  0.85078883  0.70267200  1.0
  Cl  Cl16  1  0.15269367  0.08264717  0.42114400  1.0
  Cl  Cl16  1  0.15269367  0.08264717  0.92114400  1.0
  Cl  Cl16  1  0.15269367  0.24931383  0.42114400  1.0
  Cl  Cl16  1  0.15269367  0.24931383  0.92114400  1.0
  Cl  Cl16  1  0.15269367  0.41598050  0.42114400  1.0
  Cl  Cl16  1  0.15269367  0.41598050  0.92114400  1.0
  Cl  Cl16  1  0.15269367  0.58264717  0.42114400  1.0
  Cl  Cl16  1  0.15269367  0.58264717  0.92114400  1.0
  Cl  Cl16  1  0.15269367  0.74931383  0.42114400  1.0
  Cl  Cl16  1  0.15269367  0.74931383  0.92114400  1.0
  Cl  Cl16  1  0.15269367  0.91598050  0.42114400  1.0
  Cl  Cl16  1  0.15269367  0.91598050  0.92114400  1.0
  Cl  Cl16  1  0.31936033  0.08264717  0.42114400  1.0
  Cl  Cl16  1  0.31936033  0.08264717  0.92114400  1.0
  Cl  Cl16  1  0.31936033  0.24931383  0.42114400  1.0
  Cl  Cl16  1  0.31936033  0.24931383  0.92114400  1.0
  Cl  Cl16  1  0.31936033  0.41598050  0.42114400  1.0
  Cl  Cl16  1  0.31936033  0.41598050  0.92114400  1.0
  Cl  Cl16  1  0.31936033  0.58264717  0.42114400  1.0
  Cl  Cl16  1  0.31936033  0.58264717  0.92114400  1.0
  Cl  Cl16  1  0.31936033  0.74931383  0.42114400  1.0
  Cl  Cl16  1  0.31936033  0.74931383  0.92114400  1.0
  Cl  Cl16  1  0.31936033  0.91598050  0.42114400  1.0
  Cl  Cl16  1  0.31936033  0.91598050  0.92114400  1.0
  Cl  Cl16  1  0.48602700  0.08264717  0.42114400  1.0
  Cl  Cl16  1  0.48602700  0.08264717  0.92114400  1.0
  Cl  Cl16  1  0.48602700  0.24931383  0.42114400  1.0
  Cl  Cl16  1  0.48602700  0.24931383  0.92114400  1.0
  Cl  Cl16  1  0.48602700  0.41598050  0.42114400  1.0
  Cl  Cl16  1  0.48602700  0.41598050  0.92114400  1.0
  Cl  Cl16  1  0.48602700  0.58264717  0.42114400  1.0
  Cl  Cl16  1  0.48602700  0.58264717  0.92114400  1.0
  Cl  Cl16  1  0.48602700  0.74931383  0.42114400  1.0
  Cl  Cl16  1  0.48602700  0.74931383  0.92114400  1.0
  Cl  Cl16  1  0.48602700  0.91598050  0.42114400  1.0
  Cl  Cl16  1  0.48602700  0.91598050  0.92114400  1.0
  Cl  Cl16  1  0.65269367  0.08264717  0.42114400  1.0
  Cl  Cl16  1  0.65269367  0.08264717  0.92114400  1.0
  Cl  Cl16  1  0.65269367  0.24931383  0.42114400  1.0
  Cl  Cl16  1  0.65269367  0.24931383  0.92114400  1.0
  Cl  Cl16  1  0.65269367  0.41598050  0.42114400  1.0
  Cl  Cl16  1  0.65269367  0.41598050  0.92114400  1.0
  Cl  Cl16  1  0.65269367  0.58264717  0.42114400  1.0
  Cl  Cl16  1  0.65269367  0.58264717  0.92114400  1.0
  Cl  Cl16  1  0.65269367  0.74931383  0.42114400  1.0
  Cl  Cl16  1  0.65269367  0.74931383  0.92114400  1.0
  Cl  Cl16  1  0.65269367  0.91598050  0.42114400  1.0
  Cl  Cl16  1  0.65269367  0.91598050  0.92114400  1.0
  Cl  Cl16  1  0.81936033  0.08264717  0.42114400  1.0
  Cl  Cl16  1  0.81936033  0.08264717  0.92114400  1.0
  Cl  Cl16  1  0.81936033  0.24931383  0.42114400  1.0
  Cl  Cl16  1  0.81936033  0.24931383  0.92114400  1.0
  Cl  Cl16  1  0.81936033  0.41598050  0.42114400  1.0
  Cl  Cl16  1  0.81936033  0.41598050  0.92114400  1.0
  Cl  Cl16  1  0.81936033  0.58264717  0.42114400  1.0
  Cl  Cl16  1  0.81936033  0.58264717  0.92114400  1.0
  Cl  Cl16  1  0.81936033  0.74931383  0.42114400  1.0
  Cl  Cl16  1  0.81936033  0.74931383  0.92114400  1.0
  Cl  Cl16  1  0.81936033  0.91598050  0.42114400  1.0
  Cl  Cl16  1  0.81936033  0.91598050  0.92114400  1.0
  Cl  Cl16  1  0.98602700  0.08264717  0.42114400  1.0
  Cl  Cl16  1  0.98602700  0.08264717  0.92114400  1.0
  Cl  Cl16  1  0.98602700  0.24931383  0.42114400  1.0
  Cl  Cl16  1  0.98602700  0.24931383  0.92114400  1.0
  Cl  Cl16  1  0.98602700  0.41598050  0.42114400  1.0
  Cl  Cl16  1  0.98602700  0.41598050  0.92114400  1.0
  Cl  Cl16  1  0.98602700  0.58264717  0.42114400  1.0
  Cl  Cl16  1  0.98602700  0.58264717  0.92114400  1.0
  Cl  Cl16  1  0.98602700  0.74931383  0.42114400  1.0
  Cl  Cl16  1  0.98602700  0.74931383  0.92114400  1.0
  Cl  Cl16  1  0.98602700  0.91598050  0.42114400  1.0
  Cl  Cl16  1  0.98602700  0.91598050  0.92114400  1.0
  Cl  Cl17  1  0.01397300  0.16598050  0.32885600  1.0
  Cl  Cl17  1  0.01397300  0.16598050  0.82885600  1.0
  Cl  Cl17  1  0.01397300  0.33264717  0.32885600  1.0
  Cl  Cl17  1  0.01397300  0.33264717  0.82885600  1.0
  Cl  Cl17  1  0.01397300  0.49931383  0.32885600  1.0
  Cl  Cl17  1  0.01397300  0.49931383  0.82885600  1.0
  Cl  Cl17  1  0.01397300  0.66598050  0.32885600  1.0
  Cl  Cl17  1  0.01397300  0.66598050  0.82885600  1.0
  Cl  Cl17  1  0.01397300  0.83264717  0.32885600  1.0
  Cl  Cl17  1  0.01397300  0.83264717  0.82885600  1.0
  Cl  Cl17  1  0.01397300  0.99931383  0.32885600  1.0
  Cl  Cl17  1  0.01397300  0.99931383  0.82885600  1.0
  Cl  Cl17  1  0.18063967  0.16598050  0.32885600  1.0
  Cl  Cl17  1  0.18063967  0.16598050  0.82885600  1.0
  Cl  Cl17  1  0.18063967  0.33264717  0.32885600  1.0
  Cl  Cl17  1  0.18063967  0.33264717  0.82885600  1.0
  Cl  Cl17  1  0.18063967  0.49931383  0.32885600  1.0
  Cl  Cl17  1  0.18063967  0.49931383  0.82885600  1.0
  Cl  Cl17  1  0.18063967  0.66598050  0.32885600  1.0
  Cl  Cl17  1  0.18063967  0.66598050  0.82885600  1.0
  Cl  Cl17  1  0.18063967  0.83264717  0.32885600  1.0
  Cl  Cl17  1  0.18063967  0.83264717  0.82885600  1.0
  Cl  Cl17  1  0.18063967  0.99931383  0.32885600  1.0
  Cl  Cl17  1  0.18063967  0.99931383  0.82885600  1.0
  Cl  Cl17  1  0.34730633  0.16598050  0.32885600  1.0
  Cl  Cl17  1  0.34730633  0.16598050  0.82885600  1.0
  Cl  Cl17  1  0.34730633  0.33264717  0.32885600  1.0
  Cl  Cl17  1  0.34730633  0.33264717  0.82885600  1.0
  Cl  Cl17  1  0.34730633  0.49931383  0.32885600  1.0
  Cl  Cl17  1  0.34730633  0.49931383  0.82885600  1.0
  Cl  Cl17  1  0.34730633  0.66598050  0.32885600  1.0
  Cl  Cl17  1  0.34730633  0.66598050  0.82885600  1.0
  Cl  Cl17  1  0.34730633  0.83264717  0.32885600  1.0
  Cl  Cl17  1  0.34730633  0.83264717  0.82885600  1.0
  Cl  Cl17  1  0.34730633  0.99931383  0.32885600  1.0
  Cl  Cl17  1  0.34730633  0.99931383  0.82885600  1.0
  Cl  Cl17  1  0.51397300  0.16598050  0.32885600  1.0
  Cl  Cl17  1  0.51397300  0.16598050  0.82885600  1.0
  Cl  Cl17  1  0.51397300  0.33264717  0.32885600  1.0
  Cl  Cl17  1  0.51397300  0.33264717  0.82885600  1.0
  Cl  Cl17  1  0.51397300  0.49931383  0.32885600  1.0
  Cl  Cl17  1  0.51397300  0.49931383  0.82885600  1.0
  Cl  Cl17  1  0.51397300  0.66598050  0.32885600  1.0
  Cl  Cl17  1  0.51397300  0.66598050  0.82885600  1.0
  Cl  Cl17  1  0.51397300  0.83264717  0.32885600  1.0
  Cl  Cl17  1  0.51397300  0.83264717  0.82885600  1.0
  Cl  Cl17  1  0.51397300  0.99931383  0.32885600  1.0
  Cl  Cl17  1  0.51397300  0.99931383  0.82885600  1.0
  Cl  Cl17  1  0.68063967  0.16598050  0.32885600  1.0
  Cl  Cl17  1  0.68063967  0.16598050  0.82885600  1.0
  Cl  Cl17  1  0.68063967  0.33264717  0.32885600  1.0
  Cl  Cl17  1  0.68063967  0.33264717  0.82885600  1.0
  Cl  Cl17  1  0.68063967  0.49931383  0.32885600  1.0
  Cl  Cl17  1  0.68063967  0.49931383  0.82885600  1.0
  Cl  Cl17  1  0.68063967  0.66598050  0.32885600  1.0
  Cl  Cl17  1  0.68063967  0.66598050  0.82885600  1.0
  Cl  Cl17  1  0.68063967  0.83264717  0.32885600  1.0
  Cl  Cl17  1  0.68063967  0.83264717  0.82885600  1.0
  Cl  Cl17  1  0.68063967  0.99931383  0.32885600  1.0
  Cl  Cl17  1  0.68063967  0.99931383  0.82885600  1.0
  Cl  Cl17  1  0.84730633  0.16598050  0.32885600  1.0
  Cl  Cl17  1  0.84730633  0.16598050  0.82885600  1.0
  Cl  Cl17  1  0.84730633  0.33264717  0.32885600  1.0
  Cl  Cl17  1  0.84730633  0.33264717  0.82885600  1.0
  Cl  Cl17  1  0.84730633  0.49931383  0.32885600  1.0
  Cl  Cl17  1  0.84730633  0.49931383  0.82885600  1.0
  Cl  Cl17  1  0.84730633  0.66598050  0.32885600  1.0
  Cl  Cl17  1  0.84730633  0.66598050  0.82885600  1.0
  Cl  Cl17  1  0.84730633  0.83264717  0.32885600  1.0
  Cl  Cl17  1  0.84730633  0.83264717  0.82885600  1.0
  Cl  Cl17  1  0.84730633  0.99931383  0.32885600  1.0
  Cl  Cl17  1  0.84730633  0.99931383  0.82885600  1.0
  Cl  Cl18  1  0.01397300  0.08401950  0.07885600  1.0
  Cl  Cl18  1  0.01397300  0.08401950  0.57885600  1.0
  Cl  Cl18  1  0.01397300  0.25068617  0.07885600  1.0
  Cl  Cl18  1  0.01397300  0.25068617  0.57885600  1.0
  Cl  Cl18  1  0.01397300  0.41735283  0.07885600  1.0
  Cl  Cl18  1  0.01397300  0.41735283  0.57885600  1.0
  Cl  Cl18  1  0.01397300  0.58401950  0.07885600  1.0
  Cl  Cl18  1  0.01397300  0.58401950  0.57885600  1.0
  Cl  Cl18  1  0.01397300  0.75068617  0.07885600  1.0
  Cl  Cl18  1  0.01397300  0.75068617  0.57885600  1.0
  Cl  Cl18  1  0.01397300  0.91735283  0.07885600  1.0
  Cl  Cl18  1  0.01397300  0.91735283  0.57885600  1.0
  Cl  Cl18  1  0.18063967  0.08401950  0.07885600  1.0
  Cl  Cl18  1  0.18063967  0.08401950  0.57885600  1.0
  Cl  Cl18  1  0.18063967  0.25068617  0.07885600  1.0
  Cl  Cl18  1  0.18063967  0.25068617  0.57885600  1.0
  Cl  Cl18  1  0.18063967  0.41735283  0.07885600  1.0
  Cl  Cl18  1  0.18063967  0.41735283  0.57885600  1.0
  Cl  Cl18  1  0.18063967  0.58401950  0.07885600  1.0
  Cl  Cl18  1  0.18063967  0.58401950  0.57885600  1.0
  Cl  Cl18  1  0.18063967  0.75068617  0.07885600  1.0
  Cl  Cl18  1  0.18063967  0.75068617  0.57885600  1.0
  Cl  Cl18  1  0.18063967  0.91735283  0.07885600  1.0
  Cl  Cl18  1  0.18063967  0.91735283  0.57885600  1.0
  Cl  Cl18  1  0.34730633  0.08401950  0.07885600  1.0
  Cl  Cl18  1  0.34730633  0.08401950  0.57885600  1.0
  Cl  Cl18  1  0.34730633  0.25068617  0.07885600  1.0
  Cl  Cl18  1  0.34730633  0.25068617  0.57885600  1.0
  Cl  Cl18  1  0.34730633  0.41735283  0.07885600  1.0
  Cl  Cl18  1  0.34730633  0.41735283  0.57885600  1.0
  Cl  Cl18  1  0.34730633  0.58401950  0.07885600  1.0
  Cl  Cl18  1  0.34730633  0.58401950  0.57885600  1.0
  Cl  Cl18  1  0.34730633  0.75068617  0.07885600  1.0
  Cl  Cl18  1  0.34730633  0.75068617  0.57885600  1.0
  Cl  Cl18  1  0.34730633  0.91735283  0.07885600  1.0
  Cl  Cl18  1  0.34730633  0.91735283  0.57885600  1.0
  Cl  Cl18  1  0.51397300  0.08401950  0.07885600  1.0
  Cl  Cl18  1  0.51397300  0.08401950  0.57885600  1.0
  Cl  Cl18  1  0.51397300  0.25068617  0.07885600  1.0
  Cl  Cl18  1  0.51397300  0.25068617  0.57885600  1.0
  Cl  Cl18  1  0.51397300  0.41735283  0.07885600  1.0
  Cl  Cl18  1  0.51397300  0.41735283  0.57885600  1.0
  Cl  Cl18  1  0.51397300  0.58401950  0.07885600  1.0
  Cl  Cl18  1  0.51397300  0.58401950  0.57885600  1.0
  Cl  Cl18  1  0.51397300  0.75068617  0.07885600  1.0
  Cl  Cl18  1  0.51397300  0.75068617  0.57885600  1.0
  Cl  Cl18  1  0.51397300  0.91735283  0.07885600  1.0
  Cl  Cl18  1  0.51397300  0.91735283  0.57885600  1.0
  Cl  Cl18  1  0.68063967  0.08401950  0.07885600  1.0
  Cl  Cl18  1  0.68063967  0.08401950  0.57885600  1.0
  Cl  Cl18  1  0.68063967  0.25068617  0.07885600  1.0
  Cl  Cl18  1  0.68063967  0.25068617  0.57885600  1.0
  Cl  Cl18  1  0.68063967  0.41735283  0.07885600  1.0
  Cl  Cl18  1  0.68063967  0.41735283  0.57885600  1.0
  Cl  Cl18  1  0.68063967  0.58401950  0.07885600  1.0
  Cl  Cl18  1  0.68063967  0.58401950  0.57885600  1.0
  Cl  Cl18  1  0.68063967  0.75068617  0.07885600  1.0
  Cl  Cl18  1  0.68063967  0.75068617  0.57885600  1.0
  Cl  Cl18  1  0.68063967  0.91735283  0.07885600  1.0
  Cl  Cl18  1  0.68063967  0.91735283  0.57885600  1.0
  Cl  Cl18  1  0.84730633  0.08401950  0.07885600  1.0
  Cl  Cl18  1  0.84730633  0.08401950  0.57885600  1.0
  Cl  Cl18  1  0.84730633  0.25068617  0.07885600  1.0
  Cl  Cl18  1  0.84730633  0.25068617  0.57885600  1.0
  Cl  Cl18  1  0.84730633  0.41735283  0.07885600  1.0
  Cl  Cl18  1  0.84730633  0.41735283  0.57885600  1.0
  Cl  Cl18  1  0.84730633  0.58401950  0.07885600  1.0
  Cl  Cl18  1  0.84730633  0.58401950  0.57885600  1.0
  Cl  Cl18  1  0.84730633  0.75068617  0.07885600  1.0
  Cl  Cl18  1  0.84730633  0.75068617  0.57885600  1.0
  Cl  Cl18  1  0.84730633  0.91735283  0.07885600  1.0
  Cl  Cl18  1  0.84730633  0.91735283  0.57885600  1.0
  Cl  Cl19  1  0.15269367  0.00068617  0.17114400  1.0
  Cl  Cl19  1  0.15269367  0.00068617  0.67114400  1.0
  Cl  Cl19  1  0.15269367  0.16735283  0.17114400  1.0
  Cl  Cl19  1  0.15269367  0.16735283  0.67114400  1.0
  Cl  Cl19  1  0.15269367  0.33401950  0.17114400  1.0
  Cl  Cl19  1  0.15269367  0.33401950  0.67114400  1.0
  Cl  Cl19  1  0.15269367  0.50068617  0.17114400  1.0
  Cl  Cl19  1  0.15269367  0.50068617  0.67114400  1.0
  Cl  Cl19  1  0.15269367  0.66735283  0.17114400  1.0
  Cl  Cl19  1  0.15269367  0.66735283  0.67114400  1.0
  Cl  Cl19  1  0.15269367  0.83401950  0.17114400  1.0
  Cl  Cl19  1  0.15269367  0.83401950  0.67114400  1.0
  Cl  Cl19  1  0.31936033  0.00068617  0.17114400  1.0
  Cl  Cl19  1  0.31936033  0.00068617  0.67114400  1.0
  Cl  Cl19  1  0.31936033  0.16735283  0.17114400  1.0
  Cl  Cl19  1  0.31936033  0.16735283  0.67114400  1.0
  Cl  Cl19  1  0.31936033  0.33401950  0.17114400  1.0
  Cl  Cl19  1  0.31936033  0.33401950  0.67114400  1.0
  Cl  Cl19  1  0.31936033  0.50068617  0.17114400  1.0
  Cl  Cl19  1  0.31936033  0.50068617  0.67114400  1.0
  Cl  Cl19  1  0.31936033  0.66735283  0.17114400  1.0
  Cl  Cl19  1  0.31936033  0.66735283  0.67114400  1.0
  Cl  Cl19  1  0.31936033  0.83401950  0.17114400  1.0
  Cl  Cl19  1  0.31936033  0.83401950  0.67114400  1.0
  Cl  Cl19  1  0.48602700  0.00068617  0.17114400  1.0
  Cl  Cl19  1  0.48602700  0.00068617  0.67114400  1.0
  Cl  Cl19  1  0.48602700  0.16735283  0.17114400  1.0
  Cl  Cl19  1  0.48602700  0.16735283  0.67114400  1.0
  Cl  Cl19  1  0.48602700  0.33401950  0.17114400  1.0
  Cl  Cl19  1  0.48602700  0.33401950  0.67114400  1.0
  Cl  Cl19  1  0.48602700  0.50068617  0.17114400  1.0
  Cl  Cl19  1  0.48602700  0.50068617  0.67114400  1.0
  Cl  Cl19  1  0.48602700  0.66735283  0.17114400  1.0
  Cl  Cl19  1  0.48602700  0.66735283  0.67114400  1.0
  Cl  Cl19  1  0.48602700  0.83401950  0.17114400  1.0
  Cl  Cl19  1  0.48602700  0.83401950  0.67114400  1.0
  Cl  Cl19  1  0.65269367  0.00068617  0.17114400  1.0
  Cl  Cl19  1  0.65269367  0.00068617  0.67114400  1.0
  Cl  Cl19  1  0.65269367  0.16735283  0.17114400  1.0
  Cl  Cl19  1  0.65269367  0.16735283  0.67114400  1.0
  Cl  Cl19  1  0.65269367  0.33401950  0.17114400  1.0
  Cl  Cl19  1  0.65269367  0.33401950  0.67114400  1.0
  Cl  Cl19  1  0.65269367  0.50068617  0.17114400  1.0
  Cl  Cl19  1  0.65269367  0.50068617  0.67114400  1.0
  Cl  Cl19  1  0.65269367  0.66735283  0.17114400  1.0
  Cl  Cl19  1  0.65269367  0.66735283  0.67114400  1.0
  Cl  Cl19  1  0.65269367  0.83401950  0.17114400  1.0
  Cl  Cl19  1  0.65269367  0.83401950  0.67114400  1.0
  Cl  Cl19  1  0.81936033  0.00068617  0.17114400  1.0
  Cl  Cl19  1  0.81936033  0.00068617  0.67114400  1.0
  Cl  Cl19  1  0.81936033  0.16735283  0.17114400  1.0
  Cl  Cl19  1  0.81936033  0.16735283  0.67114400  1.0
  Cl  Cl19  1  0.81936033  0.33401950  0.17114400  1.0
  Cl  Cl19  1  0.81936033  0.33401950  0.67114400  1.0
  Cl  Cl19  1  0.81936033  0.50068617  0.17114400  1.0
  Cl  Cl19  1  0.81936033  0.50068617  0.67114400  1.0
  Cl  Cl19  1  0.81936033  0.66735283  0.17114400  1.0
  Cl  Cl19  1  0.81936033  0.66735283  0.67114400  1.0
  Cl  Cl19  1  0.81936033  0.83401950  0.17114400  1.0
  Cl  Cl19  1  0.81936033  0.83401950  0.67114400  1.0
  Cl  Cl19  1  0.98602700  0.00068617  0.17114400  1.0
  Cl  Cl19  1  0.98602700  0.00068617  0.67114400  1.0
  Cl  Cl19  1  0.98602700  0.16735283  0.17114400  1.0
  Cl  Cl19  1  0.98602700  0.16735283  0.67114400  1.0
  Cl  Cl19  1  0.98602700  0.33401950  0.17114400  1.0
  Cl  Cl19  1  0.98602700  0.33401950  0.67114400  1.0
  Cl  Cl19  1  0.98602700  0.50068617  0.17114400  1.0
  Cl  Cl19  1  0.98602700  0.50068617  0.67114400  1.0
  Cl  Cl19  1  0.98602700  0.66735283  0.17114400  1.0
  Cl  Cl19  1  0.98602700  0.66735283  0.67114400  1.0
  Cl  Cl19  1  0.98602700  0.83401950  0.17114400  1.0
  Cl  Cl19  1  0.98602700  0.83401950  0.67114400  1.0
  Cl  Cl20  1  0.14720267  0.04212600  0.49389450  1.0
  Cl  Cl20  1  0.14720267  0.04212600  0.99389450  1.0
  Cl  Cl20  1  0.14720267  0.20879267  0.49389450  1.0
  Cl  Cl20  1  0.14720267  0.20879267  0.99389450  1.0
  Cl  Cl20  1  0.14720267  0.37545933  0.49389450  1.0
  Cl  Cl20  1  0.14720267  0.37545933  0.99389450  1.0
  Cl  Cl20  1  0.14720267  0.54212600  0.49389450  1.0
  Cl  Cl20  1  0.14720267  0.54212600  0.99389450  1.0
  Cl  Cl20  1  0.14720267  0.70879267  0.49389450  1.0
  Cl  Cl20  1  0.14720267  0.70879267  0.99389450  1.0
  Cl  Cl20  1  0.14720267  0.87545933  0.49389450  1.0
  Cl  Cl20  1  0.14720267  0.87545933  0.99389450  1.0
  Cl  Cl20  1  0.31386933  0.04212600  0.49389450  1.0
  Cl  Cl20  1  0.31386933  0.04212600  0.99389450  1.0
  Cl  Cl20  1  0.31386933  0.20879267  0.49389450  1.0
  Cl  Cl20  1  0.31386933  0.20879267  0.99389450  1.0
  Cl  Cl20  1  0.31386933  0.37545933  0.49389450  1.0
  Cl  Cl20  1  0.31386933  0.37545933  0.99389450  1.0
  Cl  Cl20  1  0.31386933  0.54212600  0.49389450  1.0
  Cl  Cl20  1  0.31386933  0.54212600  0.99389450  1.0
  Cl  Cl20  1  0.31386933  0.70879267  0.49389450  1.0
  Cl  Cl20  1  0.31386933  0.70879267  0.99389450  1.0
  Cl  Cl20  1  0.31386933  0.87545933  0.49389450  1.0
  Cl  Cl20  1  0.31386933  0.87545933  0.99389450  1.0
  Cl  Cl20  1  0.48053600  0.04212600  0.49389450  1.0
  Cl  Cl20  1  0.48053600  0.04212600  0.99389450  1.0
  Cl  Cl20  1  0.48053600  0.20879267  0.49389450  1.0
  Cl  Cl20  1  0.48053600  0.20879267  0.99389450  1.0
  Cl  Cl20  1  0.48053600  0.37545933  0.49389450  1.0
  Cl  Cl20  1  0.48053600  0.37545933  0.99389450  1.0
  Cl  Cl20  1  0.48053600  0.54212600  0.49389450  1.0
  Cl  Cl20  1  0.48053600  0.54212600  0.99389450  1.0
  Cl  Cl20  1  0.48053600  0.70879267  0.49389450  1.0
  Cl  Cl20  1  0.48053600  0.70879267  0.99389450  1.0
  Cl  Cl20  1  0.48053600  0.87545933  0.49389450  1.0
  Cl  Cl20  1  0.48053600  0.87545933  0.99389450  1.0
  Cl  Cl20  1  0.64720267  0.04212600  0.49389450  1.0
  Cl  Cl20  1  0.64720267  0.04212600  0.99389450  1.0
  Cl  Cl20  1  0.64720267  0.20879267  0.49389450  1.0
  Cl  Cl20  1  0.64720267  0.20879267  0.99389450  1.0
  Cl  Cl20  1  0.64720267  0.37545933  0.49389450  1.0
  Cl  Cl20  1  0.64720267  0.37545933  0.99389450  1.0
  Cl  Cl20  1  0.64720267  0.54212600  0.49389450  1.0
  Cl  Cl20  1  0.64720267  0.54212600  0.99389450  1.0
  Cl  Cl20  1  0.64720267  0.70879267  0.49389450  1.0
  Cl  Cl20  1  0.64720267  0.70879267  0.99389450  1.0
  Cl  Cl20  1  0.64720267  0.87545933  0.49389450  1.0
  Cl  Cl20  1  0.64720267  0.87545933  0.99389450  1.0
  Cl  Cl20  1  0.81386933  0.04212600  0.49389450  1.0
  Cl  Cl20  1  0.81386933  0.04212600  0.99389450  1.0
  Cl  Cl20  1  0.81386933  0.20879267  0.49389450  1.0
  Cl  Cl20  1  0.81386933  0.20879267  0.99389450  1.0
  Cl  Cl20  1  0.81386933  0.37545933  0.49389450  1.0
  Cl  Cl20  1  0.81386933  0.37545933  0.99389450  1.0
  Cl  Cl20  1  0.81386933  0.54212600  0.49389450  1.0
  Cl  Cl20  1  0.81386933  0.54212600  0.99389450  1.0
  Cl  Cl20  1  0.81386933  0.70879267  0.49389450  1.0
  Cl  Cl20  1  0.81386933  0.70879267  0.99389450  1.0
  Cl  Cl20  1  0.81386933  0.87545933  0.49389450  1.0
  Cl  Cl20  1  0.81386933  0.87545933  0.99389450  1.0
  Cl  Cl20  1  0.98053600  0.04212600  0.49389450  1.0
  Cl  Cl20  1  0.98053600  0.04212600  0.99389450  1.0
  Cl  Cl20  1  0.98053600  0.20879267  0.49389450  1.0
  Cl  Cl20  1  0.98053600  0.20879267  0.99389450  1.0
  Cl  Cl20  1  0.98053600  0.37545933  0.49389450  1.0
  Cl  Cl20  1  0.98053600  0.37545933  0.99389450  1.0
  Cl  Cl20  1  0.98053600  0.54212600  0.49389450  1.0
  Cl  Cl20  1  0.98053600  0.54212600  0.99389450  1.0
  Cl  Cl20  1  0.98053600  0.70879267  0.49389450  1.0
  Cl  Cl20  1  0.98053600  0.70879267  0.99389450  1.0
  Cl  Cl20  1  0.98053600  0.87545933  0.49389450  1.0
  Cl  Cl20  1  0.98053600  0.87545933  0.99389450  1.0
  Cl  Cl21  1  0.01946400  0.12545933  0.25610550  1.0
  Cl  Cl21  1  0.01946400  0.12545933  0.75610550  1.0
  Cl  Cl21  1  0.01946400  0.29212600  0.25610550  1.0
  Cl  Cl21  1  0.01946400  0.29212600  0.75610550  1.0
  Cl  Cl21  1  0.01946400  0.45879267  0.25610550  1.0
  Cl  Cl21  1  0.01946400  0.45879267  0.75610550  1.0
  Cl  Cl21  1  0.01946400  0.62545933  0.25610550  1.0
  Cl  Cl21  1  0.01946400  0.62545933  0.75610550  1.0
  Cl  Cl21  1  0.01946400  0.79212600  0.25610550  1.0
  Cl  Cl21  1  0.01946400  0.79212600  0.75610550  1.0
  Cl  Cl21  1  0.01946400  0.95879267  0.25610550  1.0
  Cl  Cl21  1  0.01946400  0.95879267  0.75610550  1.0
  Cl  Cl21  1  0.18613067  0.12545933  0.25610550  1.0
  Cl  Cl21  1  0.18613067  0.12545933  0.75610550  1.0
  Cl  Cl21  1  0.18613067  0.29212600  0.25610550  1.0
  Cl  Cl21  1  0.18613067  0.29212600  0.75610550  1.0
  Cl  Cl21  1  0.18613067  0.45879267  0.25610550  1.0
  Cl  Cl21  1  0.18613067  0.45879267  0.75610550  1.0
  Cl  Cl21  1  0.18613067  0.62545933  0.25610550  1.0
  Cl  Cl21  1  0.18613067  0.62545933  0.75610550  1.0
  Cl  Cl21  1  0.18613067  0.79212600  0.25610550  1.0
  Cl  Cl21  1  0.18613067  0.79212600  0.75610550  1.0
  Cl  Cl21  1  0.18613067  0.95879267  0.25610550  1.0
  Cl  Cl21  1  0.18613067  0.95879267  0.75610550  1.0
  Cl  Cl21  1  0.35279733  0.12545933  0.25610550  1.0
  Cl  Cl21  1  0.35279733  0.12545933  0.75610550  1.0
  Cl  Cl21  1  0.35279733  0.29212600  0.25610550  1.0
  Cl  Cl21  1  0.35279733  0.29212600  0.75610550  1.0
  Cl  Cl21  1  0.35279733  0.45879267  0.25610550  1.0
  Cl  Cl21  1  0.35279733  0.45879267  0.75610550  1.0
  Cl  Cl21  1  0.35279733  0.62545933  0.25610550  1.0
  Cl  Cl21  1  0.35279733  0.62545933  0.75610550  1.0
  Cl  Cl21  1  0.35279733  0.79212600  0.25610550  1.0
  Cl  Cl21  1  0.35279733  0.79212600  0.75610550  1.0
  Cl  Cl21  1  0.35279733  0.95879267  0.25610550  1.0
  Cl  Cl21  1  0.35279733  0.95879267  0.75610550  1.0
  Cl  Cl21  1  0.51946400  0.12545933  0.25610550  1.0
  Cl  Cl21  1  0.51946400  0.12545933  0.75610550  1.0
  Cl  Cl21  1  0.51946400  0.29212600  0.25610550  1.0
  Cl  Cl21  1  0.51946400  0.29212600  0.75610550  1.0
  Cl  Cl21  1  0.51946400  0.45879267  0.25610550  1.0
  Cl  Cl21  1  0.51946400  0.45879267  0.75610550  1.0
  Cl  Cl21  1  0.51946400  0.62545933  0.25610550  1.0
  Cl  Cl21  1  0.51946400  0.62545933  0.75610550  1.0
  Cl  Cl21  1  0.51946400  0.79212600  0.25610550  1.0
  Cl  Cl21  1  0.51946400  0.79212600  0.75610550  1.0
  Cl  Cl21  1  0.51946400  0.95879267  0.25610550  1.0
  Cl  Cl21  1  0.51946400  0.95879267  0.75610550  1.0
  Cl  Cl21  1  0.68613067  0.12545933  0.25610550  1.0
  Cl  Cl21  1  0.68613067  0.12545933  0.75610550  1.0
  Cl  Cl21  1  0.68613067  0.29212600  0.25610550  1.0
  Cl  Cl21  1  0.68613067  0.29212600  0.75610550  1.0
  Cl  Cl21  1  0.68613067  0.45879267  0.25610550  1.0
  Cl  Cl21  1  0.68613067  0.45879267  0.75610550  1.0
  Cl  Cl21  1  0.68613067  0.62545933  0.25610550  1.0
  Cl  Cl21  1  0.68613067  0.62545933  0.75610550  1.0
  Cl  Cl21  1  0.68613067  0.79212600  0.25610550  1.0
  Cl  Cl21  1  0.68613067  0.79212600  0.75610550  1.0
  Cl  Cl21  1  0.68613067  0.95879267  0.25610550  1.0
  Cl  Cl21  1  0.68613067  0.95879267  0.75610550  1.0
  Cl  Cl21  1  0.85279733  0.12545933  0.25610550  1.0
  Cl  Cl21  1  0.85279733  0.12545933  0.75610550  1.0
  Cl  Cl21  1  0.85279733  0.29212600  0.25610550  1.0
  Cl  Cl21  1  0.85279733  0.29212600  0.75610550  1.0
  Cl  Cl21  1  0.85279733  0.45879267  0.25610550  1.0
  Cl  Cl21  1  0.85279733  0.45879267  0.75610550  1.0
  Cl  Cl21  1  0.85279733  0.62545933  0.25610550  1.0
  Cl  Cl21  1  0.85279733  0.62545933  0.75610550  1.0
  Cl  Cl21  1  0.85279733  0.79212600  0.25610550  1.0
  Cl  Cl21  1  0.85279733  0.79212600  0.75610550  1.0
  Cl  Cl21  1  0.85279733  0.95879267  0.25610550  1.0
  Cl  Cl21  1  0.85279733  0.95879267  0.75610550  1.0
  Cl  Cl22  1  0.01946400  0.12454067  0.00610550  1.0
  Cl  Cl22  1  0.01946400  0.12454067  0.50610550  1.0
  Cl  Cl22  1  0.01946400  0.29120733  0.00610550  1.0
  Cl  Cl22  1  0.01946400  0.29120733  0.50610550  1.0
  Cl  Cl22  1  0.01946400  0.45787400  0.00610550  1.0
  Cl  Cl22  1  0.01946400  0.45787400  0.50610550  1.0
  Cl  Cl22  1  0.01946400  0.62454067  0.00610550  1.0
  Cl  Cl22  1  0.01946400  0.62454067  0.50610550  1.0
  Cl  Cl22  1  0.01946400  0.79120733  0.00610550  1.0
  Cl  Cl22  1  0.01946400  0.79120733  0.50610550  1.0
  Cl  Cl22  1  0.01946400  0.95787400  0.00610550  1.0
  Cl  Cl22  1  0.01946400  0.95787400  0.50610550  1.0
  Cl  Cl22  1  0.18613067  0.12454067  0.00610550  1.0
  Cl  Cl22  1  0.18613067  0.12454067  0.50610550  1.0
  Cl  Cl22  1  0.18613067  0.29120733  0.00610550  1.0
  Cl  Cl22  1  0.18613067  0.29120733  0.50610550  1.0
  Cl  Cl22  1  0.18613067  0.45787400  0.00610550  1.0
  Cl  Cl22  1  0.18613067  0.45787400  0.50610550  1.0
  Cl  Cl22  1  0.18613067  0.62454067  0.00610550  1.0
  Cl  Cl22  1  0.18613067  0.62454067  0.50610550  1.0
  Cl  Cl22  1  0.18613067  0.79120733  0.00610550  1.0
  Cl  Cl22  1  0.18613067  0.79120733  0.50610550  1.0
  Cl  Cl22  1  0.18613067  0.95787400  0.00610550  1.0
  Cl  Cl22  1  0.18613067  0.95787400  0.50610550  1.0
  Cl  Cl22  1  0.35279733  0.12454067  0.00610550  1.0
  Cl  Cl22  1  0.35279733  0.12454067  0.50610550  1.0
  Cl  Cl22  1  0.35279733  0.29120733  0.00610550  1.0
  Cl  Cl22  1  0.35279733  0.29120733  0.50610550  1.0
  Cl  Cl22  1  0.35279733  0.45787400  0.00610550  1.0
  Cl  Cl22  1  0.35279733  0.45787400  0.50610550  1.0
  Cl  Cl22  1  0.35279733  0.62454067  0.00610550  1.0
  Cl  Cl22  1  0.35279733  0.62454067  0.50610550  1.0
  Cl  Cl22  1  0.35279733  0.79120733  0.00610550  1.0
  Cl  Cl22  1  0.35279733  0.79120733  0.50610550  1.0
  Cl  Cl22  1  0.35279733  0.95787400  0.00610550  1.0
  Cl  Cl22  1  0.35279733  0.95787400  0.50610550  1.0
  Cl  Cl22  1  0.51946400  0.12454067  0.00610550  1.0
  Cl  Cl22  1  0.51946400  0.12454067  0.50610550  1.0
  Cl  Cl22  1  0.51946400  0.29120733  0.00610550  1.0
  Cl  Cl22  1  0.51946400  0.29120733  0.50610550  1.0
  Cl  Cl22  1  0.51946400  0.45787400  0.00610550  1.0
  Cl  Cl22  1  0.51946400  0.45787400  0.50610550  1.0
  Cl  Cl22  1  0.51946400  0.62454067  0.00610550  1.0
  Cl  Cl22  1  0.51946400  0.62454067  0.50610550  1.0
  Cl  Cl22  1  0.51946400  0.79120733  0.00610550  1.0
  Cl  Cl22  1  0.51946400  0.79120733  0.50610550  1.0
  Cl  Cl22  1  0.51946400  0.95787400  0.00610550  1.0
  Cl  Cl22  1  0.51946400  0.95787400  0.50610550  1.0
  Cl  Cl22  1  0.68613067  0.12454067  0.00610550  1.0
  Cl  Cl22  1  0.68613067  0.12454067  0.50610550  1.0
  Cl  Cl22  1  0.68613067  0.29120733  0.00610550  1.0
  Cl  Cl22  1  0.68613067  0.29120733  0.50610550  1.0
  Cl  Cl22  1  0.68613067  0.45787400  0.00610550  1.0
  Cl  Cl22  1  0.68613067  0.45787400  0.50610550  1.0
  Cl  Cl22  1  0.68613067  0.62454067  0.00610550  1.0
  Cl  Cl22  1  0.68613067  0.62454067  0.50610550  1.0
  Cl  Cl22  1  0.68613067  0.79120733  0.00610550  1.0
  Cl  Cl22  1  0.68613067  0.79120733  0.50610550  1.0
  Cl  Cl22  1  0.68613067  0.95787400  0.00610550  1.0
  Cl  Cl22  1  0.68613067  0.95787400  0.50610550  1.0
  Cl  Cl22  1  0.85279733  0.12454067  0.00610550  1.0
  Cl  Cl22  1  0.85279733  0.12454067  0.50610550  1.0
  Cl  Cl22  1  0.85279733  0.29120733  0.00610550  1.0
  Cl  Cl22  1  0.85279733  0.29120733  0.50610550  1.0
  Cl  Cl22  1  0.85279733  0.45787400  0.00610550  1.0
  Cl  Cl22  1  0.85279733  0.45787400  0.50610550  1.0
  Cl  Cl22  1  0.85279733  0.62454067  0.00610550  1.0
  Cl  Cl22  1  0.85279733  0.62454067  0.50610550  1.0
  Cl  Cl22  1  0.85279733  0.79120733  0.00610550  1.0
  Cl  Cl22  1  0.85279733  0.79120733  0.50610550  1.0
  Cl  Cl22  1  0.85279733  0.95787400  0.00610550  1.0
  Cl  Cl22  1  0.85279733  0.95787400  0.50610550  1.0
  Cl  Cl23  1  0.14720267  0.04120733  0.24389450  1.0
  Cl  Cl23  1  0.14720267  0.04120733  0.74389450  1.0
  Cl  Cl23  1  0.14720267  0.20787400  0.24389450  1.0
  Cl  Cl23  1  0.14720267  0.20787400  0.74389450  1.0
  Cl  Cl23  1  0.14720267  0.37454067  0.24389450  1.0
  Cl  Cl23  1  0.14720267  0.37454067  0.74389450  1.0
  Cl  Cl23  1  0.14720267  0.54120733  0.24389450  1.0
  Cl  Cl23  1  0.14720267  0.54120733  0.74389450  1.0
  Cl  Cl23  1  0.14720267  0.70787400  0.24389450  1.0
  Cl  Cl23  1  0.14720267  0.70787400  0.74389450  1.0
  Cl  Cl23  1  0.14720267  0.87454067  0.24389450  1.0
  Cl  Cl23  1  0.14720267  0.87454067  0.74389450  1.0
  Cl  Cl23  1  0.31386933  0.04120733  0.24389450  1.0
  Cl  Cl23  1  0.31386933  0.04120733  0.74389450  1.0
  Cl  Cl23  1  0.31386933  0.20787400  0.24389450  1.0
  Cl  Cl23  1  0.31386933  0.20787400  0.74389450  1.0
  Cl  Cl23  1  0.31386933  0.37454067  0.24389450  1.0
  Cl  Cl23  1  0.31386933  0.37454067  0.74389450  1.0
  Cl  Cl23  1  0.31386933  0.54120733  0.24389450  1.0
  Cl  Cl23  1  0.31386933  0.54120733  0.74389450  1.0
  Cl  Cl23  1  0.31386933  0.70787400  0.24389450  1.0
  Cl  Cl23  1  0.31386933  0.70787400  0.74389450  1.0
  Cl  Cl23  1  0.31386933  0.87454067  0.24389450  1.0
  Cl  Cl23  1  0.31386933  0.87454067  0.74389450  1.0
  Cl  Cl23  1  0.48053600  0.04120733  0.24389450  1.0
  Cl  Cl23  1  0.48053600  0.04120733  0.74389450  1.0
  Cl  Cl23  1  0.48053600  0.20787400  0.24389450  1.0
  Cl  Cl23  1  0.48053600  0.20787400  0.74389450  1.0
  Cl  Cl23  1  0.48053600  0.37454067  0.24389450  1.0
  Cl  Cl23  1  0.48053600  0.37454067  0.74389450  1.0
  Cl  Cl23  1  0.48053600  0.54120733  0.24389450  1.0
  Cl  Cl23  1  0.48053600  0.54120733  0.74389450  1.0
  Cl  Cl23  1  0.48053600  0.70787400  0.24389450  1.0
  Cl  Cl23  1  0.48053600  0.70787400  0.74389450  1.0
  Cl  Cl23  1  0.48053600  0.87454067  0.24389450  1.0
  Cl  Cl23  1  0.48053600  0.87454067  0.74389450  1.0
  Cl  Cl23  1  0.64720267  0.04120733  0.24389450  1.0
  Cl  Cl23  1  0.64720267  0.04120733  0.74389450  1.0
  Cl  Cl23  1  0.64720267  0.20787400  0.24389450  1.0
  Cl  Cl23  1  0.64720267  0.20787400  0.74389450  1.0
  Cl  Cl23  1  0.64720267  0.37454067  0.24389450  1.0
  Cl  Cl23  1  0.64720267  0.37454067  0.74389450  1.0
  Cl  Cl23  1  0.64720267  0.54120733  0.24389450  1.0
  Cl  Cl23  1  0.64720267  0.54120733  0.74389450  1.0
  Cl  Cl23  1  0.64720267  0.70787400  0.24389450  1.0
  Cl  Cl23  1  0.64720267  0.70787400  0.74389450  1.0
  Cl  Cl23  1  0.64720267  0.87454067  0.24389450  1.0
  Cl  Cl23  1  0.64720267  0.87454067  0.74389450  1.0
  Cl  Cl23  1  0.81386933  0.04120733  0.24389450  1.0
  Cl  Cl23  1  0.81386933  0.04120733  0.74389450  1.0
  Cl  Cl23  1  0.81386933  0.20787400  0.24389450  1.0
  Cl  Cl23  1  0.81386933  0.20787400  0.74389450  1.0
  Cl  Cl23  1  0.81386933  0.37454067  0.24389450  1.0
  Cl  Cl23  1  0.81386933  0.37454067  0.74389450  1.0
  Cl  Cl23  1  0.81386933  0.54120733  0.24389450  1.0
  Cl  Cl23  1  0.81386933  0.54120733  0.74389450  1.0
  Cl  Cl23  1  0.81386933  0.70787400  0.24389450  1.0
  Cl  Cl23  1  0.81386933  0.70787400  0.74389450  1.0
  Cl  Cl23  1  0.81386933  0.87454067  0.24389450  1.0
  Cl  Cl23  1  0.81386933  0.87454067  0.74389450  1.0
  Cl  Cl23  1  0.98053600  0.04120733  0.24389450  1.0
  Cl  Cl23  1  0.98053600  0.04120733  0.74389450  1.0
  Cl  Cl23  1  0.98053600  0.20787400  0.24389450  1.0
  Cl  Cl23  1  0.98053600  0.20787400  0.74389450  1.0
  Cl  Cl23  1  0.98053600  0.37454067  0.24389450  1.0
  Cl  Cl23  1  0.98053600  0.37454067  0.74389450  1.0
  Cl  Cl23  1  0.98053600  0.54120733  0.24389450  1.0
  Cl  Cl23  1  0.98053600  0.54120733  0.74389450  1.0
  Cl  Cl23  1  0.98053600  0.70787400  0.24389450  1.0
  Cl  Cl23  1  0.98053600  0.70787400  0.74389450  1.0
  Cl  Cl23  1  0.98053600  0.87454067  0.24389450  1.0
  Cl  Cl23  1  0.98053600  0.87454067  0.74389450  1.0
  Cl  Cl24  1  0.00536133  0.00716200  0.42093700  1.0
  Cl  Cl24  1  0.00536133  0.00716200  0.92093700  1.0
  Cl  Cl24  1  0.00536133  0.17382867  0.42093700  1.0
  Cl  Cl24  1  0.00536133  0.17382867  0.92093700  1.0
  Cl  Cl24  1  0.00536133  0.34049533  0.42093700  1.0
  Cl  Cl24  1  0.00536133  0.34049533  0.92093700  1.0
  Cl  Cl24  1  0.00536133  0.50716200  0.42093700  1.0
  Cl  Cl24  1  0.00536133  0.50716200  0.92093700  1.0
  Cl  Cl24  1  0.00536133  0.67382867  0.42093700  1.0
  Cl  Cl24  1  0.00536133  0.67382867  0.92093700  1.0
  Cl  Cl24  1  0.00536133  0.84049533  0.42093700  1.0
  Cl  Cl24  1  0.00536133  0.84049533  0.92093700  1.0
  Cl  Cl24  1  0.17202800  0.00716200  0.42093700  1.0
  Cl  Cl24  1  0.17202800  0.00716200  0.92093700  1.0
  Cl  Cl24  1  0.17202800  0.17382867  0.42093700  1.0
  Cl  Cl24  1  0.17202800  0.17382867  0.92093700  1.0
  Cl  Cl24  1  0.17202800  0.34049533  0.42093700  1.0
  Cl  Cl24  1  0.17202800  0.34049533  0.92093700  1.0
  Cl  Cl24  1  0.17202800  0.50716200  0.42093700  1.0
  Cl  Cl24  1  0.17202800  0.50716200  0.92093700  1.0
  Cl  Cl24  1  0.17202800  0.67382867  0.42093700  1.0
  Cl  Cl24  1  0.17202800  0.67382867  0.92093700  1.0
  Cl  Cl24  1  0.17202800  0.84049533  0.42093700  1.0
  Cl  Cl24  1  0.17202800  0.84049533  0.92093700  1.0
  Cl  Cl24  1  0.33869467  0.00716200  0.42093700  1.0
  Cl  Cl24  1  0.33869467  0.00716200  0.92093700  1.0
  Cl  Cl24  1  0.33869467  0.17382867  0.42093700  1.0
  Cl  Cl24  1  0.33869467  0.17382867  0.92093700  1.0
  Cl  Cl24  1  0.33869467  0.34049533  0.42093700  1.0
  Cl  Cl24  1  0.33869467  0.34049533  0.92093700  1.0
  Cl  Cl24  1  0.33869467  0.50716200  0.42093700  1.0
  Cl  Cl24  1  0.33869467  0.50716200  0.92093700  1.0
  Cl  Cl24  1  0.33869467  0.67382867  0.42093700  1.0
  Cl  Cl24  1  0.33869467  0.67382867  0.92093700  1.0
  Cl  Cl24  1  0.33869467  0.84049533  0.42093700  1.0
  Cl  Cl24  1  0.33869467  0.84049533  0.92093700  1.0
  Cl  Cl24  1  0.50536133  0.00716200  0.42093700  1.0
  Cl  Cl24  1  0.50536133  0.00716200  0.92093700  1.0
  Cl  Cl24  1  0.50536133  0.17382867  0.42093700  1.0
  Cl  Cl24  1  0.50536133  0.17382867  0.92093700  1.0
  Cl  Cl24  1  0.50536133  0.34049533  0.42093700  1.0
  Cl  Cl24  1  0.50536133  0.34049533  0.92093700  1.0
  Cl  Cl24  1  0.50536133  0.50716200  0.42093700  1.0
  Cl  Cl24  1  0.50536133  0.50716200  0.92093700  1.0
  Cl  Cl24  1  0.50536133  0.67382867  0.42093700  1.0
  Cl  Cl24  1  0.50536133  0.67382867  0.92093700  1.0
  Cl  Cl24  1  0.50536133  0.84049533  0.42093700  1.0
  Cl  Cl24  1  0.50536133  0.84049533  0.92093700  1.0
  Cl  Cl24  1  0.67202800  0.00716200  0.42093700  1.0
  Cl  Cl24  1  0.67202800  0.00716200  0.92093700  1.0
  Cl  Cl24  1  0.67202800  0.17382867  0.42093700  1.0
  Cl  Cl24  1  0.67202800  0.17382867  0.92093700  1.0
  Cl  Cl24  1  0.67202800  0.34049533  0.42093700  1.0
  Cl  Cl24  1  0.67202800  0.34049533  0.92093700  1.0
  Cl  Cl24  1  0.67202800  0.50716200  0.42093700  1.0
  Cl  Cl24  1  0.67202800  0.50716200  0.92093700  1.0
  Cl  Cl24  1  0.67202800  0.67382867  0.42093700  1.0
  Cl  Cl24  1  0.67202800  0.67382867  0.92093700  1.0
  Cl  Cl24  1  0.67202800  0.84049533  0.42093700  1.0
  Cl  Cl24  1  0.67202800  0.84049533  0.92093700  1.0
  Cl  Cl24  1  0.83869467  0.00716200  0.42093700  1.0
  Cl  Cl24  1  0.83869467  0.00716200  0.92093700  1.0
  Cl  Cl24  1  0.83869467  0.17382867  0.42093700  1.0
  Cl  Cl24  1  0.83869467  0.17382867  0.92093700  1.0
  Cl  Cl24  1  0.83869467  0.34049533  0.42093700  1.0
  Cl  Cl24  1  0.83869467  0.34049533  0.92093700  1.0
  Cl  Cl24  1  0.83869467  0.50716200  0.42093700  1.0
  Cl  Cl24  1  0.83869467  0.50716200  0.92093700  1.0
  Cl  Cl24  1  0.83869467  0.67382867  0.42093700  1.0
  Cl  Cl24  1  0.83869467  0.67382867  0.92093700  1.0
  Cl  Cl24  1  0.83869467  0.84049533  0.42093700  1.0
  Cl  Cl24  1  0.83869467  0.84049533  0.92093700  1.0
  Cl  Cl25  1  0.16130533  0.09049533  0.32906300  1.0
  Cl  Cl25  1  0.16130533  0.09049533  0.82906300  1.0
  Cl  Cl25  1  0.16130533  0.25716200  0.32906300  1.0
  Cl  Cl25  1  0.16130533  0.25716200  0.82906300  1.0
  Cl  Cl25  1  0.16130533  0.42382867  0.32906300  1.0
  Cl  Cl25  1  0.16130533  0.42382867  0.82906300  1.0
  Cl  Cl25  1  0.16130533  0.59049533  0.32906300  1.0
  Cl  Cl25  1  0.16130533  0.59049533  0.82906300  1.0
  Cl  Cl25  1  0.16130533  0.75716200  0.32906300  1.0
  Cl  Cl25  1  0.16130533  0.75716200  0.82906300  1.0
  Cl  Cl25  1  0.16130533  0.92382867  0.32906300  1.0
  Cl  Cl25  1  0.16130533  0.92382867  0.82906300  1.0
  Cl  Cl25  1  0.32797200  0.09049533  0.32906300  1.0
  Cl  Cl25  1  0.32797200  0.09049533  0.82906300  1.0
  Cl  Cl25  1  0.32797200  0.25716200  0.32906300  1.0
  Cl  Cl25  1  0.32797200  0.25716200  0.82906300  1.0
  Cl  Cl25  1  0.32797200  0.42382867  0.32906300  1.0
  Cl  Cl25  1  0.32797200  0.42382867  0.82906300  1.0
  Cl  Cl25  1  0.32797200  0.59049533  0.32906300  1.0
  Cl  Cl25  1  0.32797200  0.59049533  0.82906300  1.0
  Cl  Cl25  1  0.32797200  0.75716200  0.32906300  1.0
  Cl  Cl25  1  0.32797200  0.75716200  0.82906300  1.0
  Cl  Cl25  1  0.32797200  0.92382867  0.32906300  1.0
  Cl  Cl25  1  0.32797200  0.92382867  0.82906300  1.0
  Cl  Cl25  1  0.49463867  0.09049533  0.32906300  1.0
  Cl  Cl25  1  0.49463867  0.09049533  0.82906300  1.0
  Cl  Cl25  1  0.49463867  0.25716200  0.32906300  1.0
  Cl  Cl25  1  0.49463867  0.25716200  0.82906300  1.0
  Cl  Cl25  1  0.49463867  0.42382867  0.32906300  1.0
  Cl  Cl25  1  0.49463867  0.42382867  0.82906300  1.0
  Cl  Cl25  1  0.49463867  0.59049533  0.32906300  1.0
  Cl  Cl25  1  0.49463867  0.59049533  0.82906300  1.0
  Cl  Cl25  1  0.49463867  0.75716200  0.32906300  1.0
  Cl  Cl25  1  0.49463867  0.75716200  0.82906300  1.0
  Cl  Cl25  1  0.49463867  0.92382867  0.32906300  1.0
  Cl  Cl25  1  0.49463867  0.92382867  0.82906300  1.0
  Cl  Cl25  1  0.66130533  0.09049533  0.32906300  1.0
  Cl  Cl25  1  0.66130533  0.09049533  0.82906300  1.0
  Cl  Cl25  1  0.66130533  0.25716200  0.32906300  1.0
  Cl  Cl25  1  0.66130533  0.25716200  0.82906300  1.0
  Cl  Cl25  1  0.66130533  0.42382867  0.32906300  1.0
  Cl  Cl25  1  0.66130533  0.42382867  0.82906300  1.0
  Cl  Cl25  1  0.66130533  0.59049533  0.32906300  1.0
  Cl  Cl25  1  0.66130533  0.59049533  0.82906300  1.0
  Cl  Cl25  1  0.66130533  0.75716200  0.32906300  1.0
  Cl  Cl25  1  0.66130533  0.75716200  0.82906300  1.0
  Cl  Cl25  1  0.66130533  0.92382867  0.32906300  1.0
  Cl  Cl25  1  0.66130533  0.92382867  0.82906300  1.0
  Cl  Cl25  1  0.82797200  0.09049533  0.32906300  1.0
  Cl  Cl25  1  0.82797200  0.09049533  0.82906300  1.0
  Cl  Cl25  1  0.82797200  0.25716200  0.32906300  1.0
  Cl  Cl25  1  0.82797200  0.25716200  0.82906300  1.0
  Cl  Cl25  1  0.82797200  0.42382867  0.32906300  1.0
  Cl  Cl25  1  0.82797200  0.42382867  0.82906300  1.0
  Cl  Cl25  1  0.82797200  0.59049533  0.32906300  1.0
  Cl  Cl25  1  0.82797200  0.59049533  0.82906300  1.0
  Cl  Cl25  1  0.82797200  0.75716200  0.32906300  1.0
  Cl  Cl25  1  0.82797200  0.75716200  0.82906300  1.0
  Cl  Cl25  1  0.82797200  0.92382867  0.32906300  1.0
  Cl  Cl25  1  0.82797200  0.92382867  0.82906300  1.0
  Cl  Cl25  1  0.99463867  0.09049533  0.32906300  1.0
  Cl  Cl25  1  0.99463867  0.09049533  0.82906300  1.0
  Cl  Cl25  1  0.99463867  0.25716200  0.32906300  1.0
  Cl  Cl25  1  0.99463867  0.25716200  0.82906300  1.0
  Cl  Cl25  1  0.99463867  0.42382867  0.32906300  1.0
  Cl  Cl25  1  0.99463867  0.42382867  0.82906300  1.0
  Cl  Cl25  1  0.99463867  0.59049533  0.32906300  1.0
  Cl  Cl25  1  0.99463867  0.59049533  0.82906300  1.0
  Cl  Cl25  1  0.99463867  0.75716200  0.32906300  1.0
  Cl  Cl25  1  0.99463867  0.75716200  0.82906300  1.0
  Cl  Cl25  1  0.99463867  0.92382867  0.32906300  1.0
  Cl  Cl25  1  0.99463867  0.92382867  0.82906300  1.0
  Cl  Cl26  1  0.16130533  0.15950467  0.07906300  1.0
  Cl  Cl26  1  0.16130533  0.15950467  0.57906300  1.0
  Cl  Cl26  1  0.16130533  0.32617133  0.07906300  1.0
  Cl  Cl26  1  0.16130533  0.32617133  0.57906300  1.0
  Cl  Cl26  1  0.16130533  0.49283800  0.07906300  1.0
  Cl  Cl26  1  0.16130533  0.49283800  0.57906300  1.0
  Cl  Cl26  1  0.16130533  0.65950467  0.07906300  1.0
  Cl  Cl26  1  0.16130533  0.65950467  0.57906300  1.0
  Cl  Cl26  1  0.16130533  0.82617133  0.07906300  1.0
  Cl  Cl26  1  0.16130533  0.82617133  0.57906300  1.0
  Cl  Cl26  1  0.16130533  0.99283800  0.07906300  1.0
  Cl  Cl26  1  0.16130533  0.99283800  0.57906300  1.0
  Cl  Cl26  1  0.32797200  0.15950467  0.07906300  1.0
  Cl  Cl26  1  0.32797200  0.15950467  0.57906300  1.0
  Cl  Cl26  1  0.32797200  0.32617133  0.07906300  1.0
  Cl  Cl26  1  0.32797200  0.32617133  0.57906300  1.0
  Cl  Cl26  1  0.32797200  0.49283800  0.07906300  1.0
  Cl  Cl26  1  0.32797200  0.49283800  0.57906300  1.0
  Cl  Cl26  1  0.32797200  0.65950467  0.07906300  1.0
  Cl  Cl26  1  0.32797200  0.65950467  0.57906300  1.0
  Cl  Cl26  1  0.32797200  0.82617133  0.07906300  1.0
  Cl  Cl26  1  0.32797200  0.82617133  0.57906300  1.0
  Cl  Cl26  1  0.32797200  0.99283800  0.07906300  1.0
  Cl  Cl26  1  0.32797200  0.99283800  0.57906300  1.0
  Cl  Cl26  1  0.49463867  0.15950467  0.07906300  1.0
  Cl  Cl26  1  0.49463867  0.15950467  0.57906300  1.0
  Cl  Cl26  1  0.49463867  0.32617133  0.07906300  1.0
  Cl  Cl26  1  0.49463867  0.32617133  0.57906300  1.0
  Cl  Cl26  1  0.49463867  0.49283800  0.07906300  1.0
  Cl  Cl26  1  0.49463867  0.49283800  0.57906300  1.0
  Cl  Cl26  1  0.49463867  0.65950467  0.07906300  1.0
  Cl  Cl26  1  0.49463867  0.65950467  0.57906300  1.0
  Cl  Cl26  1  0.49463867  0.82617133  0.07906300  1.0
  Cl  Cl26  1  0.49463867  0.82617133  0.57906300  1.0
  Cl  Cl26  1  0.49463867  0.99283800  0.07906300  1.0
  Cl  Cl26  1  0.49463867  0.99283800  0.57906300  1.0
  Cl  Cl26  1  0.66130533  0.15950467  0.07906300  1.0
  Cl  Cl26  1  0.66130533  0.15950467  0.57906300  1.0
  Cl  Cl26  1  0.66130533  0.32617133  0.07906300  1.0
  Cl  Cl26  1  0.66130533  0.32617133  0.57906300  1.0
  Cl  Cl26  1  0.66130533  0.49283800  0.07906300  1.0
  Cl  Cl26  1  0.66130533  0.49283800  0.57906300  1.0
  Cl  Cl26  1  0.66130533  0.65950467  0.07906300  1.0
  Cl  Cl26  1  0.66130533  0.65950467  0.57906300  1.0
  Cl  Cl26  1  0.66130533  0.82617133  0.07906300  1.0
  Cl  Cl26  1  0.66130533  0.82617133  0.57906300  1.0
  Cl  Cl26  1  0.66130533  0.99283800  0.07906300  1.0
  Cl  Cl26  1  0.66130533  0.99283800  0.57906300  1.0
  Cl  Cl26  1  0.82797200  0.15950467  0.07906300  1.0
  Cl  Cl26  1  0.82797200  0.15950467  0.57906300  1.0
  Cl  Cl26  1  0.82797200  0.32617133  0.07906300  1.0
  Cl  Cl26  1  0.82797200  0.32617133  0.57906300  1.0
  Cl  Cl26  1  0.82797200  0.49283800  0.07906300  1.0
  Cl  Cl26  1  0.82797200  0.49283800  0.57906300  1.0
  Cl  Cl26  1  0.82797200  0.65950467  0.07906300  1.0
  Cl  Cl26  1  0.82797200  0.65950467  0.57906300  1.0
  Cl  Cl26  1  0.82797200  0.82617133  0.07906300  1.0
  Cl  Cl26  1  0.82797200  0.82617133  0.57906300  1.0
  Cl  Cl26  1  0.82797200  0.99283800  0.07906300  1.0
  Cl  Cl26  1  0.82797200  0.99283800  0.57906300  1.0
  Cl  Cl26  1  0.99463867  0.15950467  0.07906300  1.0
  Cl  Cl26  1  0.99463867  0.15950467  0.57906300  1.0
  Cl  Cl26  1  0.99463867  0.32617133  0.07906300  1.0
  Cl  Cl26  1  0.99463867  0.32617133  0.57906300  1.0
  Cl  Cl26  1  0.99463867  0.49283800  0.07906300  1.0
  Cl  Cl26  1  0.99463867  0.49283800  0.57906300  1.0
  Cl  Cl26  1  0.99463867  0.65950467  0.07906300  1.0
  Cl  Cl26  1  0.99463867  0.65950467  0.57906300  1.0
  Cl  Cl26  1  0.99463867  0.82617133  0.07906300  1.0
  Cl  Cl26  1  0.99463867  0.82617133  0.57906300  1.0
  Cl  Cl26  1  0.99463867  0.99283800  0.07906300  1.0
  Cl  Cl26  1  0.99463867  0.99283800  0.57906300  1.0
  Cl  Cl27  1  0.00536133  0.07617133  0.17093700  1.0
  Cl  Cl27  1  0.00536133  0.07617133  0.67093700  1.0
  Cl  Cl27  1  0.00536133  0.24283800  0.17093700  1.0
  Cl  Cl27  1  0.00536133  0.24283800  0.67093700  1.0
  Cl  Cl27  1  0.00536133  0.40950467  0.17093700  1.0
  Cl  Cl27  1  0.00536133  0.40950467  0.67093700  1.0
  Cl  Cl27  1  0.00536133  0.57617133  0.17093700  1.0
  Cl  Cl27  1  0.00536133  0.57617133  0.67093700  1.0
  Cl  Cl27  1  0.00536133  0.74283800  0.17093700  1.0
  Cl  Cl27  1  0.00536133  0.74283800  0.67093700  1.0
  Cl  Cl27  1  0.00536133  0.90950467  0.17093700  1.0
  Cl  Cl27  1  0.00536133  0.90950467  0.67093700  1.0
  Cl  Cl27  1  0.17202800  0.07617133  0.17093700  1.0
  Cl  Cl27  1  0.17202800  0.07617133  0.67093700  1.0
  Cl  Cl27  1  0.17202800  0.24283800  0.17093700  1.0
  Cl  Cl27  1  0.17202800  0.24283800  0.67093700  1.0
  Cl  Cl27  1  0.17202800  0.40950467  0.17093700  1.0
  Cl  Cl27  1  0.17202800  0.40950467  0.67093700  1.0
  Cl  Cl27  1  0.17202800  0.57617133  0.17093700  1.0
  Cl  Cl27  1  0.17202800  0.57617133  0.67093700  1.0
  Cl  Cl27  1  0.17202800  0.74283800  0.17093700  1.0
  Cl  Cl27  1  0.17202800  0.74283800  0.67093700  1.0
  Cl  Cl27  1  0.17202800  0.90950467  0.17093700  1.0
  Cl  Cl27  1  0.17202800  0.90950467  0.67093700  1.0
  Cl  Cl27  1  0.33869467  0.07617133  0.17093700  1.0
  Cl  Cl27  1  0.33869467  0.07617133  0.67093700  1.0
  Cl  Cl27  1  0.33869467  0.24283800  0.17093700  1.0
  Cl  Cl27  1  0.33869467  0.24283800  0.67093700  1.0
  Cl  Cl27  1  0.33869467  0.40950467  0.17093700  1.0
  Cl  Cl27  1  0.33869467  0.40950467  0.67093700  1.0
  Cl  Cl27  1  0.33869467  0.57617133  0.17093700  1.0
  Cl  Cl27  1  0.33869467  0.57617133  0.67093700  1.0
  Cl  Cl27  1  0.33869467  0.74283800  0.17093700  1.0
  Cl  Cl27  1  0.33869467  0.74283800  0.67093700  1.0
  Cl  Cl27  1  0.33869467  0.90950467  0.17093700  1.0
  Cl  Cl27  1  0.33869467  0.90950467  0.67093700  1.0
  Cl  Cl27  1  0.50536133  0.07617133  0.17093700  1.0
  Cl  Cl27  1  0.50536133  0.07617133  0.67093700  1.0
  Cl  Cl27  1  0.50536133  0.24283800  0.17093700  1.0
  Cl  Cl27  1  0.50536133  0.24283800  0.67093700  1.0
  Cl  Cl27  1  0.50536133  0.40950467  0.17093700  1.0
  Cl  Cl27  1  0.50536133  0.40950467  0.67093700  1.0
  Cl  Cl27  1  0.50536133  0.57617133  0.17093700  1.0
  Cl  Cl27  1  0.50536133  0.57617133  0.67093700  1.0
  Cl  Cl27  1  0.50536133  0.74283800  0.17093700  1.0
  Cl  Cl27  1  0.50536133  0.74283800  0.67093700  1.0
  Cl  Cl27  1  0.50536133  0.90950467  0.17093700  1.0
  Cl  Cl27  1  0.50536133  0.90950467  0.67093700  1.0
  Cl  Cl27  1  0.67202800  0.07617133  0.17093700  1.0
  Cl  Cl27  1  0.67202800  0.07617133  0.67093700  1.0
  Cl  Cl27  1  0.67202800  0.24283800  0.17093700  1.0
  Cl  Cl27  1  0.67202800  0.24283800  0.67093700  1.0
  Cl  Cl27  1  0.67202800  0.40950467  0.17093700  1.0
  Cl  Cl27  1  0.67202800  0.40950467  0.67093700  1.0
  Cl  Cl27  1  0.67202800  0.57617133  0.17093700  1.0
  Cl  Cl27  1  0.67202800  0.57617133  0.67093700  1.0
  Cl  Cl27  1  0.67202800  0.74283800  0.17093700  1.0
  Cl  Cl27  1  0.67202800  0.74283800  0.67093700  1.0
  Cl  Cl27  1  0.67202800  0.90950467  0.17093700  1.0
  Cl  Cl27  1  0.67202800  0.90950467  0.67093700  1.0
  Cl  Cl27  1  0.83869467  0.07617133  0.17093700  1.0
  Cl  Cl27  1  0.83869467  0.07617133  0.67093700  1.0
  Cl  Cl27  1  0.83869467  0.24283800  0.17093700  1.0
  Cl  Cl27  1  0.83869467  0.24283800  0.67093700  1.0
  Cl  Cl27  1  0.83869467  0.40950467  0.17093700  1.0
  Cl  Cl27  1  0.83869467  0.40950467  0.67093700  1.0
  Cl  Cl27  1  0.83869467  0.57617133  0.17093700  1.0
  Cl  Cl27  1  0.83869467  0.57617133  0.67093700  1.0
  Cl  Cl27  1  0.83869467  0.74283800  0.17093700  1.0
  Cl  Cl27  1  0.83869467  0.74283800  0.67093700  1.0
  Cl  Cl27  1  0.83869467  0.90950467  0.17093700  1.0
  Cl  Cl27  1  0.83869467  0.90950467  0.67093700  1.0
  Cl  Cl28  1  0.09905083  0.15535350  0.45397700  1.0
  Cl  Cl28  1  0.09905083  0.15535350  0.95397700  1.0
  Cl  Cl28  1  0.09905083  0.32202017  0.45397700  1.0
  Cl  Cl28  1  0.09905083  0.32202017  0.95397700  1.0
  Cl  Cl28  1  0.09905083  0.48868683  0.45397700  1.0
  Cl  Cl28  1  0.09905083  0.48868683  0.95397700  1.0
  Cl  Cl28  1  0.09905083  0.65535350  0.45397700  1.0
  Cl  Cl28  1  0.09905083  0.65535350  0.95397700  1.0
  Cl  Cl28  1  0.09905083  0.82202017  0.45397700  1.0
  Cl  Cl28  1  0.09905083  0.82202017  0.95397700  1.0
  Cl  Cl28  1  0.09905083  0.98868683  0.45397700  1.0
  Cl  Cl28  1  0.09905083  0.98868683  0.95397700  1.0
  Cl  Cl28  1  0.26571750  0.15535350  0.45397700  1.0
  Cl  Cl28  1  0.26571750  0.15535350  0.95397700  1.0
  Cl  Cl28  1  0.26571750  0.32202017  0.45397700  1.0
  Cl  Cl28  1  0.26571750  0.32202017  0.95397700  1.0
  Cl  Cl28  1  0.26571750  0.48868683  0.45397700  1.0
  Cl  Cl28  1  0.26571750  0.48868683  0.95397700  1.0
  Cl  Cl28  1  0.26571750  0.65535350  0.45397700  1.0
  Cl  Cl28  1  0.26571750  0.65535350  0.95397700  1.0
  Cl  Cl28  1  0.26571750  0.82202017  0.45397700  1.0
  Cl  Cl28  1  0.26571750  0.82202017  0.95397700  1.0
  Cl  Cl28  1  0.26571750  0.98868683  0.45397700  1.0
  Cl  Cl28  1  0.26571750  0.98868683  0.95397700  1.0
  Cl  Cl28  1  0.43238417  0.15535350  0.45397700  1.0
  Cl  Cl28  1  0.43238417  0.15535350  0.95397700  1.0
  Cl  Cl28  1  0.43238417  0.32202017  0.45397700  1.0
  Cl  Cl28  1  0.43238417  0.32202017  0.95397700  1.0
  Cl  Cl28  1  0.43238417  0.48868683  0.45397700  1.0
  Cl  Cl28  1  0.43238417  0.48868683  0.95397700  1.0
  Cl  Cl28  1  0.43238417  0.65535350  0.45397700  1.0
  Cl  Cl28  1  0.43238417  0.65535350  0.95397700  1.0
  Cl  Cl28  1  0.43238417  0.82202017  0.45397700  1.0
  Cl  Cl28  1  0.43238417  0.82202017  0.95397700  1.0
  Cl  Cl28  1  0.43238417  0.98868683  0.45397700  1.0
  Cl  Cl28  1  0.43238417  0.98868683  0.95397700  1.0
  Cl  Cl28  1  0.59905083  0.15535350  0.45397700  1.0
  Cl  Cl28  1  0.59905083  0.15535350  0.95397700  1.0
  Cl  Cl28  1  0.59905083  0.32202017  0.45397700  1.0
  Cl  Cl28  1  0.59905083  0.32202017  0.95397700  1.0
  Cl  Cl28  1  0.59905083  0.48868683  0.45397700  1.0
  Cl  Cl28  1  0.59905083  0.48868683  0.95397700  1.0
  Cl  Cl28  1  0.59905083  0.65535350  0.45397700  1.0
  Cl  Cl28  1  0.59905083  0.65535350  0.95397700  1.0
  Cl  Cl28  1  0.59905083  0.82202017  0.45397700  1.0
  Cl  Cl28  1  0.59905083  0.82202017  0.95397700  1.0
  Cl  Cl28  1  0.59905083  0.98868683  0.45397700  1.0
  Cl  Cl28  1  0.59905083  0.98868683  0.95397700  1.0
  Cl  Cl28  1  0.76571750  0.15535350  0.45397700  1.0
  Cl  Cl28  1  0.76571750  0.15535350  0.95397700  1.0
  Cl  Cl28  1  0.76571750  0.32202017  0.45397700  1.0
  Cl  Cl28  1  0.76571750  0.32202017  0.95397700  1.0
  Cl  Cl28  1  0.76571750  0.48868683  0.45397700  1.0
  Cl  Cl28  1  0.76571750  0.48868683  0.95397700  1.0
  Cl  Cl28  1  0.76571750  0.65535350  0.45397700  1.0
  Cl  Cl28  1  0.76571750  0.65535350  0.95397700  1.0
  Cl  Cl28  1  0.76571750  0.82202017  0.45397700  1.0
  Cl  Cl28  1  0.76571750  0.82202017  0.95397700  1.0
  Cl  Cl28  1  0.76571750  0.98868683  0.45397700  1.0
  Cl  Cl28  1  0.76571750  0.98868683  0.95397700  1.0
  Cl  Cl28  1  0.93238417  0.15535350  0.45397700  1.0
  Cl  Cl28  1  0.93238417  0.15535350  0.95397700  1.0
  Cl  Cl28  1  0.93238417  0.32202017  0.45397700  1.0
  Cl  Cl28  1  0.93238417  0.32202017  0.95397700  1.0
  Cl  Cl28  1  0.93238417  0.48868683  0.45397700  1.0
  Cl  Cl28  1  0.93238417  0.48868683  0.95397700  1.0
  Cl  Cl28  1  0.93238417  0.65535350  0.45397700  1.0
  Cl  Cl28  1  0.93238417  0.65535350  0.95397700  1.0
  Cl  Cl28  1  0.93238417  0.82202017  0.45397700  1.0
  Cl  Cl28  1  0.93238417  0.82202017  0.95397700  1.0
  Cl  Cl28  1  0.93238417  0.98868683  0.45397700  1.0
  Cl  Cl28  1  0.93238417  0.98868683  0.95397700  1.0
  Cl  Cl29  1  0.06761583  0.07202017  0.29602300  1.0
  Cl  Cl29  1  0.06761583  0.07202017  0.79602300  1.0
  Cl  Cl29  1  0.06761583  0.23868683  0.29602300  1.0
  Cl  Cl29  1  0.06761583  0.23868683  0.79602300  1.0
  Cl  Cl29  1  0.06761583  0.40535350  0.29602300  1.0
  Cl  Cl29  1  0.06761583  0.40535350  0.79602300  1.0
  Cl  Cl29  1  0.06761583  0.57202017  0.29602300  1.0
  Cl  Cl29  1  0.06761583  0.57202017  0.79602300  1.0
  Cl  Cl29  1  0.06761583  0.73868683  0.29602300  1.0
  Cl  Cl29  1  0.06761583  0.73868683  0.79602300  1.0
  Cl  Cl29  1  0.06761583  0.90535350  0.29602300  1.0
  Cl  Cl29  1  0.06761583  0.90535350  0.79602300  1.0
  Cl  Cl29  1  0.23428250  0.07202017  0.29602300  1.0
  Cl  Cl29  1  0.23428250  0.07202017  0.79602300  1.0
  Cl  Cl29  1  0.23428250  0.23868683  0.29602300  1.0
  Cl  Cl29  1  0.23428250  0.23868683  0.79602300  1.0
  Cl  Cl29  1  0.23428250  0.40535350  0.29602300  1.0
  Cl  Cl29  1  0.23428250  0.40535350  0.79602300  1.0
  Cl  Cl29  1  0.23428250  0.57202017  0.29602300  1.0
  Cl  Cl29  1  0.23428250  0.57202017  0.79602300  1.0
  Cl  Cl29  1  0.23428250  0.73868683  0.29602300  1.0
  Cl  Cl29  1  0.23428250  0.73868683  0.79602300  1.0
  Cl  Cl29  1  0.23428250  0.90535350  0.29602300  1.0
  Cl  Cl29  1  0.23428250  0.90535350  0.79602300  1.0
  Cl  Cl29  1  0.40094917  0.07202017  0.29602300  1.0
  Cl  Cl29  1  0.40094917  0.07202017  0.79602300  1.0
  Cl  Cl29  1  0.40094917  0.23868683  0.29602300  1.0
  Cl  Cl29  1  0.40094917  0.23868683  0.79602300  1.0
  Cl  Cl29  1  0.40094917  0.40535350  0.29602300  1.0
  Cl  Cl29  1  0.40094917  0.40535350  0.79602300  1.0
  Cl  Cl29  1  0.40094917  0.57202017  0.29602300  1.0
  Cl  Cl29  1  0.40094917  0.57202017  0.79602300  1.0
  Cl  Cl29  1  0.40094917  0.73868683  0.29602300  1.0
  Cl  Cl29  1  0.40094917  0.73868683  0.79602300  1.0
  Cl  Cl29  1  0.40094917  0.90535350  0.29602300  1.0
  Cl  Cl29  1  0.40094917  0.90535350  0.79602300  1.0
  Cl  Cl29  1  0.56761583  0.07202017  0.29602300  1.0
  Cl  Cl29  1  0.56761583  0.07202017  0.79602300  1.0
  Cl  Cl29  1  0.56761583  0.23868683  0.29602300  1.0
  Cl  Cl29  1  0.56761583  0.23868683  0.79602300  1.0
  Cl  Cl29  1  0.56761583  0.40535350  0.29602300  1.0
  Cl  Cl29  1  0.56761583  0.40535350  0.79602300  1.0
  Cl  Cl29  1  0.56761583  0.57202017  0.29602300  1.0
  Cl  Cl29  1  0.56761583  0.57202017  0.79602300  1.0
  Cl  Cl29  1  0.56761583  0.73868683  0.29602300  1.0
  Cl  Cl29  1  0.56761583  0.73868683  0.79602300  1.0
  Cl  Cl29  1  0.56761583  0.90535350  0.29602300  1.0
  Cl  Cl29  1  0.56761583  0.90535350  0.79602300  1.0
  Cl  Cl29  1  0.73428250  0.07202017  0.29602300  1.0
  Cl  Cl29  1  0.73428250  0.07202017  0.79602300  1.0
  Cl  Cl29  1  0.73428250  0.23868683  0.29602300  1.0
  Cl  Cl29  1  0.73428250  0.23868683  0.79602300  1.0
  Cl  Cl29  1  0.73428250  0.40535350  0.29602300  1.0
  Cl  Cl29  1  0.73428250  0.40535350  0.79602300  1.0
  Cl  Cl29  1  0.73428250  0.57202017  0.29602300  1.0
  Cl  Cl29  1  0.73428250  0.57202017  0.79602300  1.0
  Cl  Cl29  1  0.73428250  0.73868683  0.29602300  1.0
  Cl  Cl29  1  0.73428250  0.73868683  0.79602300  1.0
  Cl  Cl29  1  0.73428250  0.90535350  0.29602300  1.0
  Cl  Cl29  1  0.73428250  0.90535350  0.79602300  1.0
  Cl  Cl29  1  0.90094917  0.07202017  0.29602300  1.0
  Cl  Cl29  1  0.90094917  0.07202017  0.79602300  1.0
  Cl  Cl29  1  0.90094917  0.23868683  0.29602300  1.0
  Cl  Cl29  1  0.90094917  0.23868683  0.79602300  1.0
  Cl  Cl29  1  0.90094917  0.40535350  0.29602300  1.0
  Cl  Cl29  1  0.90094917  0.40535350  0.79602300  1.0
  Cl  Cl29  1  0.90094917  0.57202017  0.29602300  1.0
  Cl  Cl29  1  0.90094917  0.57202017  0.79602300  1.0
  Cl  Cl29  1  0.90094917  0.73868683  0.29602300  1.0
  Cl  Cl29  1  0.90094917  0.73868683  0.79602300  1.0
  Cl  Cl29  1  0.90094917  0.90535350  0.29602300  1.0
  Cl  Cl29  1  0.90094917  0.90535350  0.79602300  1.0
  Cl  Cl30  1  0.06761583  0.01131317  0.04602300  1.0
  Cl  Cl30  1  0.06761583  0.01131317  0.54602300  1.0
  Cl  Cl30  1  0.06761583  0.17797983  0.04602300  1.0
  Cl  Cl30  1  0.06761583  0.17797983  0.54602300  1.0
  Cl  Cl30  1  0.06761583  0.34464650  0.04602300  1.0
  Cl  Cl30  1  0.06761583  0.34464650  0.54602300  1.0
  Cl  Cl30  1  0.06761583  0.51131317  0.04602300  1.0
  Cl  Cl30  1  0.06761583  0.51131317  0.54602300  1.0
  Cl  Cl30  1  0.06761583  0.67797983  0.04602300  1.0
  Cl  Cl30  1  0.06761583  0.67797983  0.54602300  1.0
  Cl  Cl30  1  0.06761583  0.84464650  0.04602300  1.0
  Cl  Cl30  1  0.06761583  0.84464650  0.54602300  1.0
  Cl  Cl30  1  0.23428250  0.01131317  0.04602300  1.0
  Cl  Cl30  1  0.23428250  0.01131317  0.54602300  1.0
  Cl  Cl30  1  0.23428250  0.17797983  0.04602300  1.0
  Cl  Cl30  1  0.23428250  0.17797983  0.54602300  1.0
  Cl  Cl30  1  0.23428250  0.34464650  0.04602300  1.0
  Cl  Cl30  1  0.23428250  0.34464650  0.54602300  1.0
  Cl  Cl30  1  0.23428250  0.51131317  0.04602300  1.0
  Cl  Cl30  1  0.23428250  0.51131317  0.54602300  1.0
  Cl  Cl30  1  0.23428250  0.67797983  0.04602300  1.0
  Cl  Cl30  1  0.23428250  0.67797983  0.54602300  1.0
  Cl  Cl30  1  0.23428250  0.84464650  0.04602300  1.0
  Cl  Cl30  1  0.23428250  0.84464650  0.54602300  1.0
  Cl  Cl30  1  0.40094917  0.01131317  0.04602300  1.0
  Cl  Cl30  1  0.40094917  0.01131317  0.54602300  1.0
  Cl  Cl30  1  0.40094917  0.17797983  0.04602300  1.0
  Cl  Cl30  1  0.40094917  0.17797983  0.54602300  1.0
  Cl  Cl30  1  0.40094917  0.34464650  0.04602300  1.0
  Cl  Cl30  1  0.40094917  0.34464650  0.54602300  1.0
  Cl  Cl30  1  0.40094917  0.51131317  0.04602300  1.0
  Cl  Cl30  1  0.40094917  0.51131317  0.54602300  1.0
  Cl  Cl30  1  0.40094917  0.67797983  0.04602300  1.0
  Cl  Cl30  1  0.40094917  0.67797983  0.54602300  1.0
  Cl  Cl30  1  0.40094917  0.84464650  0.04602300  1.0
  Cl  Cl30  1  0.40094917  0.84464650  0.54602300  1.0
  Cl  Cl30  1  0.56761583  0.01131317  0.04602300  1.0
  Cl  Cl30  1  0.56761583  0.01131317  0.54602300  1.0
  Cl  Cl30  1  0.56761583  0.17797983  0.04602300  1.0
  Cl  Cl30  1  0.56761583  0.17797983  0.54602300  1.0
  Cl  Cl30  1  0.56761583  0.34464650  0.04602300  1.0
  Cl  Cl30  1  0.56761583  0.34464650  0.54602300  1.0
  Cl  Cl30  1  0.56761583  0.51131317  0.04602300  1.0
  Cl  Cl30  1  0.56761583  0.51131317  0.54602300  1.0
  Cl  Cl30  1  0.56761583  0.67797983  0.04602300  1.0
  Cl  Cl30  1  0.56761583  0.67797983  0.54602300  1.0
  Cl  Cl30  1  0.56761583  0.84464650  0.04602300  1.0
  Cl  Cl30  1  0.56761583  0.84464650  0.54602300  1.0
  Cl  Cl30  1  0.73428250  0.01131317  0.04602300  1.0
  Cl  Cl30  1  0.73428250  0.01131317  0.54602300  1.0
  Cl  Cl30  1  0.73428250  0.17797983  0.04602300  1.0
  Cl  Cl30  1  0.73428250  0.17797983  0.54602300  1.0
  Cl  Cl30  1  0.73428250  0.34464650  0.04602300  1.0
  Cl  Cl30  1  0.73428250  0.34464650  0.54602300  1.0
  Cl  Cl30  1  0.73428250  0.51131317  0.04602300  1.0
  Cl  Cl30  1  0.73428250  0.51131317  0.54602300  1.0
  Cl  Cl30  1  0.73428250  0.67797983  0.04602300  1.0
  Cl  Cl30  1  0.73428250  0.67797983  0.54602300  1.0
  Cl  Cl30  1  0.73428250  0.84464650  0.04602300  1.0
  Cl  Cl30  1  0.73428250  0.84464650  0.54602300  1.0
  Cl  Cl30  1  0.90094917  0.01131317  0.04602300  1.0
  Cl  Cl30  1  0.90094917  0.01131317  0.54602300  1.0
  Cl  Cl30  1  0.90094917  0.17797983  0.04602300  1.0
  Cl  Cl30  1  0.90094917  0.17797983  0.54602300  1.0
  Cl  Cl30  1  0.90094917  0.34464650  0.04602300  1.0
  Cl  Cl30  1  0.90094917  0.34464650  0.54602300  1.0
  Cl  Cl30  1  0.90094917  0.51131317  0.04602300  1.0
  Cl  Cl30  1  0.90094917  0.51131317  0.54602300  1.0
  Cl  Cl30  1  0.90094917  0.67797983  0.04602300  1.0
  Cl  Cl30  1  0.90094917  0.67797983  0.54602300  1.0
  Cl  Cl30  1  0.90094917  0.84464650  0.04602300  1.0
  Cl  Cl30  1  0.90094917  0.84464650  0.54602300  1.0
  Cl  Cl31  1  0.09905083  0.09464650  0.20397700  1.0
  Cl  Cl31  1  0.09905083  0.09464650  0.70397700  1.0
  Cl  Cl31  1  0.09905083  0.26131317  0.20397700  1.0
  Cl  Cl31  1  0.09905083  0.26131317  0.70397700  1.0
  Cl  Cl31  1  0.09905083  0.42797983  0.20397700  1.0
  Cl  Cl31  1  0.09905083  0.42797983  0.70397700  1.0
  Cl  Cl31  1  0.09905083  0.59464650  0.20397700  1.0
  Cl  Cl31  1  0.09905083  0.59464650  0.70397700  1.0
  Cl  Cl31  1  0.09905083  0.76131317  0.20397700  1.0
  Cl  Cl31  1  0.09905083  0.76131317  0.70397700  1.0
  Cl  Cl31  1  0.09905083  0.92797983  0.20397700  1.0
  Cl  Cl31  1  0.09905083  0.92797983  0.70397700  1.0
  Cl  Cl31  1  0.26571750  0.09464650  0.20397700  1.0
  Cl  Cl31  1  0.26571750  0.09464650  0.70397700  1.0
  Cl  Cl31  1  0.26571750  0.26131317  0.20397700  1.0
  Cl  Cl31  1  0.26571750  0.26131317  0.70397700  1.0
  Cl  Cl31  1  0.26571750  0.42797983  0.20397700  1.0
  Cl  Cl31  1  0.26571750  0.42797983  0.70397700  1.0
  Cl  Cl31  1  0.26571750  0.59464650  0.20397700  1.0
  Cl  Cl31  1  0.26571750  0.59464650  0.70397700  1.0
  Cl  Cl31  1  0.26571750  0.76131317  0.20397700  1.0
  Cl  Cl31  1  0.26571750  0.76131317  0.70397700  1.0
  Cl  Cl31  1  0.26571750  0.92797983  0.20397700  1.0
  Cl  Cl31  1  0.26571750  0.92797983  0.70397700  1.0
  Cl  Cl31  1  0.43238417  0.09464650  0.20397700  1.0
  Cl  Cl31  1  0.43238417  0.09464650  0.70397700  1.0
  Cl  Cl31  1  0.43238417  0.26131317  0.20397700  1.0
  Cl  Cl31  1  0.43238417  0.26131317  0.70397700  1.0
  Cl  Cl31  1  0.43238417  0.42797983  0.20397700  1.0
  Cl  Cl31  1  0.43238417  0.42797983  0.70397700  1.0
  Cl  Cl31  1  0.43238417  0.59464650  0.20397700  1.0
  Cl  Cl31  1  0.43238417  0.59464650  0.70397700  1.0
  Cl  Cl31  1  0.43238417  0.76131317  0.20397700  1.0
  Cl  Cl31  1  0.43238417  0.76131317  0.70397700  1.0
  Cl  Cl31  1  0.43238417  0.92797983  0.20397700  1.0
  Cl  Cl31  1  0.43238417  0.92797983  0.70397700  1.0
  Cl  Cl31  1  0.59905083  0.09464650  0.20397700  1.0
  Cl  Cl31  1  0.59905083  0.09464650  0.70397700  1.0
  Cl  Cl31  1  0.59905083  0.26131317  0.20397700  1.0
  Cl  Cl31  1  0.59905083  0.26131317  0.70397700  1.0
  Cl  Cl31  1  0.59905083  0.42797983  0.20397700  1.0
  Cl  Cl31  1  0.59905083  0.42797983  0.70397700  1.0
  Cl  Cl31  1  0.59905083  0.59464650  0.20397700  1.0
  Cl  Cl31  1  0.59905083  0.59464650  0.70397700  1.0
  Cl  Cl31  1  0.59905083  0.76131317  0.20397700  1.0
  Cl  Cl31  1  0.59905083  0.76131317  0.70397700  1.0
  Cl  Cl31  1  0.59905083  0.92797983  0.20397700  1.0
  Cl  Cl31  1  0.59905083  0.92797983  0.70397700  1.0
  Cl  Cl31  1  0.76571750  0.09464650  0.20397700  1.0
  Cl  Cl31  1  0.76571750  0.09464650  0.70397700  1.0
  Cl  Cl31  1  0.76571750  0.26131317  0.20397700  1.0
  Cl  Cl31  1  0.76571750  0.26131317  0.70397700  1.0
  Cl  Cl31  1  0.76571750  0.42797983  0.20397700  1.0
  Cl  Cl31  1  0.76571750  0.42797983  0.70397700  1.0
  Cl  Cl31  1  0.76571750  0.59464650  0.20397700  1.0
  Cl  Cl31  1  0.76571750  0.59464650  0.70397700  1.0
  Cl  Cl31  1  0.76571750  0.76131317  0.20397700  1.0
  Cl  Cl31  1  0.76571750  0.76131317  0.70397700  1.0
  Cl  Cl31  1  0.76571750  0.92797983  0.20397700  1.0
  Cl  Cl31  1  0.76571750  0.92797983  0.70397700  1.0
  Cl  Cl31  1  0.93238417  0.09464650  0.20397700  1.0
  Cl  Cl31  1  0.93238417  0.09464650  0.70397700  1.0
  Cl  Cl31  1  0.93238417  0.26131317  0.20397700  1.0
  Cl  Cl31  1  0.93238417  0.26131317  0.70397700  1.0
  Cl  Cl31  1  0.93238417  0.42797983  0.20397700  1.0
  Cl  Cl31  1  0.93238417  0.42797983  0.70397700  1.0
  Cl  Cl31  1  0.93238417  0.59464650  0.20397700  1.0
  Cl  Cl31  1  0.93238417  0.59464650  0.70397700  1.0
  Cl  Cl31  1  0.93238417  0.76131317  0.20397700  1.0
  Cl  Cl31  1  0.93238417  0.76131317  0.70397700  1.0
  Cl  Cl31  1  0.93238417  0.92797983  0.20397700  1.0
  Cl  Cl31  1  0.93238417  0.92797983  0.70397700  1.0
