# generated using pymatgen
data_GeO2
_symmetry_space_group_name_H-M   'P 1'
_cell_length_a   25.41861510
_cell_length_b   25.41861510
_cell_length_c   28.79892000
_cell_angle_alpha   90.00000000
_cell_angle_beta   90.00000000
_cell_angle_gamma   120.00000000
_symmetry_Int_Tables_number   1
_chemical_formula_structural   GeO2
_chemical_formula_sum   'Ge375 O750'
_cell_volume   16114.26876736
_cell_formula_units_Z   375
loop_
 _symmetry_equiv_pos_site_id
 _symmetry_equiv_pos_as_xyz
  1  'x, y, z'
loop_
 _atom_site_type_symbol
 _atom_site_label
 _atom_site_symmetry_multiplicity
 _atom_site_fract_x
 _atom_site_fract_y
 _atom_site_fract_z
 _atom_site_occupancy
  Ge  Ge0  1  0.10899040  0.10899040  0.00000000  1.0
  Ge  Ge0  1  0.10899040  0.10899040  0.20000000  1.0
  Ge  Ge0  1  0.10899040  0.10899040  0.40000000  1.0
  Ge  Ge0  1  0.10899040  0.10899040  0.60000000  1.0
  Ge  Ge0  1  0.10899040  0.10899040  0.80000000  1.0
  Ge  Ge0  1  0.10899040  0.30899040  0.00000000  1.0
  Ge  Ge0  1  0.10899040  0.30899040  0.20000000  1.0
  Ge  Ge0  1  0.10899040  0.30899040  0.40000000  1.0
  Ge  Ge0  1  0.10899040  0.30899040  0.60000000  1.0
  Ge  Ge0  1  0.10899040  0.30899040  0.80000000  1.0
  Ge  Ge0  1  0.10899040  0.50899040  0.00000000  1.0
  Ge  Ge0  1  0.10899040  0.50899040  0.20000000  1.0
  Ge  Ge0  1  0.10899040  0.50899040  0.40000000  1.0
  Ge  Ge0  1  0.10899040  0.50899040  0.60000000  1.0
  Ge  Ge0  1  0.10899040  0.50899040  0.80000000  1.0
  Ge  Ge0  1  0.10899040  0.70899040  0.00000000  1.0
  Ge  Ge0  1  0.10899040  0.70899040  0.20000000  1.0
  Ge  Ge0  1  0.10899040  0.70899040  0.40000000  1.0
  Ge  Ge0  1  0.10899040  0.70899040  0.60000000  1.0
  Ge  Ge0  1  0.10899040  0.70899040  0.80000000  1.0
  Ge  Ge0  1  0.10899040  0.90899040  0.00000000  1.0
  Ge  Ge0  1  0.10899040  0.90899040  0.20000000  1.0
  Ge  Ge0  1  0.10899040  0.90899040  0.40000000  1.0
  Ge  Ge0  1  0.10899040  0.90899040  0.60000000  1.0
  Ge  Ge0  1  0.10899040  0.90899040  0.80000000  1.0
  Ge  Ge0  1  0.30899040  0.10899040  0.00000000  1.0
  Ge  Ge0  1  0.30899040  0.10899040  0.20000000  1.0
  Ge  Ge0  1  0.30899040  0.10899040  0.40000000  1.0
  Ge  Ge0  1  0.30899040  0.10899040  0.60000000  1.0
  Ge  Ge0  1  0.30899040  0.10899040  0.80000000  1.0
  Ge  Ge0  1  0.30899040  0.30899040  0.00000000  1.0
  Ge  Ge0  1  0.30899040  0.30899040  0.20000000  1.0
  Ge  Ge0  1  0.30899040  0.30899040  0.40000000  1.0
  Ge  Ge0  1  0.30899040  0.30899040  0.60000000  1.0
  Ge  Ge0  1  0.30899040  0.30899040  0.80000000  1.0
  Ge  Ge0  1  0.30899040  0.50899040  0.00000000  1.0
  Ge  Ge0  1  0.30899040  0.50899040  0.20000000  1.0
  Ge  Ge0  1  0.30899040  0.50899040  0.40000000  1.0
  Ge  Ge0  1  0.30899040  0.50899040  0.60000000  1.0
  Ge  Ge0  1  0.30899040  0.50899040  0.80000000  1.0
  Ge  Ge0  1  0.30899040  0.70899040  0.00000000  1.0
  Ge  Ge0  1  0.30899040  0.70899040  0.20000000  1.0
  Ge  Ge0  1  0.30899040  0.70899040  0.40000000  1.0
  Ge  Ge0  1  0.30899040  0.70899040  0.60000000  1.0
  Ge  Ge0  1  0.30899040  0.70899040  0.80000000  1.0
  Ge  Ge0  1  0.30899040  0.90899040  0.00000000  1.0
  Ge  Ge0  1  0.30899040  0.90899040  0.20000000  1.0
  Ge  Ge0  1  0.30899040  0.90899040  0.40000000  1.0
  Ge  Ge0  1  0.30899040  0.90899040  0.60000000  1.0
  Ge  Ge0  1  0.30899040  0.90899040  0.80000000  1.0
  Ge  Ge0  1  0.50899040  0.10899040  0.00000000  1.0
  Ge  Ge0  1  0.50899040  0.10899040  0.20000000  1.0
  Ge  Ge0  1  0.50899040  0.10899040  0.40000000  1.0
  Ge  Ge0  1  0.50899040  0.10899040  0.60000000  1.0
  Ge  Ge0  1  0.50899040  0.10899040  0.80000000  1.0
  Ge  Ge0  1  0.50899040  0.30899040  0.00000000  1.0
  Ge  Ge0  1  0.50899040  0.30899040  0.20000000  1.0
  Ge  Ge0  1  0.50899040  0.30899040  0.40000000  1.0
  Ge  Ge0  1  0.50899040  0.30899040  0.60000000  1.0
  Ge  Ge0  1  0.50899040  0.30899040  0.80000000  1.0
  Ge  Ge0  1  0.50899040  0.50899040  0.00000000  1.0
  Ge  Ge0  1  0.50899040  0.50899040  0.20000000  1.0
  Ge  Ge0  1  0.50899040  0.50899040  0.40000000  1.0
  Ge  Ge0  1  0.50899040  0.50899040  0.60000000  1.0
  Ge  Ge0  1  0.50899040  0.50899040  0.80000000  1.0
  Ge  Ge0  1  0.50899040  0.70899040  0.00000000  1.0
  Ge  Ge0  1  0.50899040  0.70899040  0.20000000  1.0
  Ge  Ge0  1  0.50899040  0.70899040  0.40000000  1.0
  Ge  Ge0  1  0.50899040  0.70899040  0.60000000  1.0
  Ge  Ge0  1  0.50899040  0.70899040  0.80000000  1.0
  Ge  Ge0  1  0.50899040  0.90899040  0.00000000  1.0
  Ge  Ge0  1  0.50899040  0.90899040  0.20000000  1.0
  Ge  Ge0  1  0.50899040  0.90899040  0.40000000  1.0
  Ge  Ge0  1  0.50899040  0.90899040  0.60000000  1.0
  Ge  Ge0  1  0.50899040  0.90899040  0.80000000  1.0
  Ge  Ge0  1  0.70899040  0.10899040  0.00000000  1.0
  Ge  Ge0  1  0.70899040  0.10899040  0.20000000  1.0
  Ge  Ge0  1  0.70899040  0.10899040  0.40000000  1.0
  Ge  Ge0  1  0.70899040  0.10899040  0.60000000  1.0
  Ge  Ge0  1  0.70899040  0.10899040  0.80000000  1.0
  Ge  Ge0  1  0.70899040  0.30899040  0.00000000  1.0
  Ge  Ge0  1  0.70899040  0.30899040  0.20000000  1.0
  Ge  Ge0  1  0.70899040  0.30899040  0.40000000  1.0
  Ge  Ge0  1  0.70899040  0.30899040  0.60000000  1.0
  Ge  Ge0  1  0.70899040  0.30899040  0.80000000  1.0
  Ge  Ge0  1  0.70899040  0.50899040  0.00000000  1.0
  Ge  Ge0  1  0.70899040  0.50899040  0.20000000  1.0
  Ge  Ge0  1  0.70899040  0.50899040  0.40000000  1.0
  Ge  Ge0  1  0.70899040  0.50899040  0.60000000  1.0
  Ge  Ge0  1  0.70899040  0.50899040  0.80000000  1.0
  Ge  Ge0  1  0.70899040  0.70899040  0.00000000  1.0
  Ge  Ge0  1  0.70899040  0.70899040  0.20000000  1.0
  Ge  Ge0  1  0.70899040  0.70899040  0.40000000  1.0
  Ge  Ge0  1  0.70899040  0.70899040  0.60000000  1.0
  Ge  Ge0  1  0.70899040  0.70899040  0.80000000  1.0
  Ge  Ge0  1  0.70899040  0.90899040  0.00000000  1.0
  Ge  Ge0  1  0.70899040  0.90899040  0.20000000  1.0
  Ge  Ge0  1  0.70899040  0.90899040  0.40000000  1.0
  Ge  Ge0  1  0.70899040  0.90899040  0.60000000  1.0
  Ge  Ge0  1  0.70899040  0.90899040  0.80000000  1.0
  Ge  Ge0  1  0.90899040  0.10899040  0.00000000  1.0
  Ge  Ge0  1  0.90899040  0.10899040  0.20000000  1.0
  Ge  Ge0  1  0.90899040  0.10899040  0.40000000  1.0
  Ge  Ge0  1  0.90899040  0.10899040  0.60000000  1.0
  Ge  Ge0  1  0.90899040  0.10899040  0.80000000  1.0
  Ge  Ge0  1  0.90899040  0.30899040  0.00000000  1.0
  Ge  Ge0  1  0.90899040  0.30899040  0.20000000  1.0
  Ge  Ge0  1  0.90899040  0.30899040  0.40000000  1.0
  Ge  Ge0  1  0.90899040  0.30899040  0.60000000  1.0
  Ge  Ge0  1  0.90899040  0.30899040  0.80000000  1.0
  Ge  Ge0  1  0.90899040  0.50899040  0.00000000  1.0
  Ge  Ge0  1  0.90899040  0.50899040  0.20000000  1.0
  Ge  Ge0  1  0.90899040  0.50899040  0.40000000  1.0
  Ge  Ge0  1  0.90899040  0.50899040  0.60000000  1.0
  Ge  Ge0  1  0.90899040  0.50899040  0.80000000  1.0
  Ge  Ge0  1  0.90899040  0.70899040  0.00000000  1.0
  Ge  Ge0  1  0.90899040  0.70899040  0.20000000  1.0
  Ge  Ge0  1  0.90899040  0.70899040  0.40000000  1.0
  Ge  Ge0  1  0.90899040  0.70899040  0.60000000  1.0
  Ge  Ge0  1  0.90899040  0.70899040  0.80000000  1.0
  Ge  Ge0  1  0.90899040  0.90899040  0.00000000  1.0
  Ge  Ge0  1  0.90899040  0.90899040  0.20000000  1.0
  Ge  Ge0  1  0.90899040  0.90899040  0.40000000  1.0
  Ge  Ge0  1  0.90899040  0.90899040  0.60000000  1.0
  Ge  Ge0  1  0.90899040  0.90899040  0.80000000  1.0
  Ge  Ge1  1  0.00000000  0.09100960  0.06666667  1.0
  Ge  Ge1  1  0.00000000  0.09100960  0.26666667  1.0
  Ge  Ge1  1  0.00000000  0.09100960  0.46666667  1.0
  Ge  Ge1  1  0.00000000  0.09100960  0.66666667  1.0
  Ge  Ge1  1  0.00000000  0.09100960  0.86666667  1.0
  Ge  Ge1  1  0.00000000  0.29100960  0.06666667  1.0
  Ge  Ge1  1  0.00000000  0.29100960  0.26666667  1.0
  Ge  Ge1  1  0.00000000  0.29100960  0.46666667  1.0
  Ge  Ge1  1  0.00000000  0.29100960  0.66666667  1.0
  Ge  Ge1  1  0.00000000  0.29100960  0.86666667  1.0
  Ge  Ge1  1  0.00000000  0.49100960  0.06666667  1.0
  Ge  Ge1  1  0.00000000  0.49100960  0.26666667  1.0
  Ge  Ge1  1  0.00000000  0.49100960  0.46666667  1.0
  Ge  Ge1  1  0.00000000  0.49100960  0.66666667  1.0
  Ge  Ge1  1  0.00000000  0.49100960  0.86666667  1.0
  Ge  Ge1  1  0.00000000  0.69100960  0.06666667  1.0
  Ge  Ge1  1  0.00000000  0.69100960  0.26666667  1.0
  Ge  Ge1  1  0.00000000  0.69100960  0.46666667  1.0
  Ge  Ge1  1  0.00000000  0.69100960  0.66666667  1.0
  Ge  Ge1  1  0.00000000  0.69100960  0.86666667  1.0
  Ge  Ge1  1  0.00000000  0.89100960  0.06666667  1.0
  Ge  Ge1  1  0.00000000  0.89100960  0.26666667  1.0
  Ge  Ge1  1  0.00000000  0.89100960  0.46666667  1.0
  Ge  Ge1  1  0.00000000  0.89100960  0.66666667  1.0
  Ge  Ge1  1  0.00000000  0.89100960  0.86666667  1.0
  Ge  Ge1  1  0.20000000  0.09100960  0.06666667  1.0
  Ge  Ge1  1  0.20000000  0.09100960  0.26666667  1.0
  Ge  Ge1  1  0.20000000  0.09100960  0.46666667  1.0
  Ge  Ge1  1  0.20000000  0.09100960  0.66666667  1.0
  Ge  Ge1  1  0.20000000  0.09100960  0.86666667  1.0
  Ge  Ge1  1  0.20000000  0.29100960  0.06666667  1.0
  Ge  Ge1  1  0.20000000  0.29100960  0.26666667  1.0
  Ge  Ge1  1  0.20000000  0.29100960  0.46666667  1.0
  Ge  Ge1  1  0.20000000  0.29100960  0.66666667  1.0
  Ge  Ge1  1  0.20000000  0.29100960  0.86666667  1.0
  Ge  Ge1  1  0.20000000  0.49100960  0.06666667  1.0
  Ge  Ge1  1  0.20000000  0.49100960  0.26666667  1.0
  Ge  Ge1  1  0.20000000  0.49100960  0.46666667  1.0
  Ge  Ge1  1  0.20000000  0.49100960  0.66666667  1.0
  Ge  Ge1  1  0.20000000  0.49100960  0.86666667  1.0
  Ge  Ge1  1  0.20000000  0.69100960  0.06666667  1.0
  Ge  Ge1  1  0.20000000  0.69100960  0.26666667  1.0
  Ge  Ge1  1  0.20000000  0.69100960  0.46666667  1.0
  Ge  Ge1  1  0.20000000  0.69100960  0.66666667  1.0
  Ge  Ge1  1  0.20000000  0.69100960  0.86666667  1.0
  Ge  Ge1  1  0.20000000  0.89100960  0.06666667  1.0
  Ge  Ge1  1  0.20000000  0.89100960  0.26666667  1.0
  Ge  Ge1  1  0.20000000  0.89100960  0.46666667  1.0
  Ge  Ge1  1  0.20000000  0.89100960  0.66666667  1.0
  Ge  Ge1  1  0.20000000  0.89100960  0.86666667  1.0
  Ge  Ge1  1  0.40000000  0.09100960  0.06666667  1.0
  Ge  Ge1  1  0.40000000  0.09100960  0.26666667  1.0
  Ge  Ge1  1  0.40000000  0.09100960  0.46666667  1.0
  Ge  Ge1  1  0.40000000  0.09100960  0.66666667  1.0
  Ge  Ge1  1  0.40000000  0.09100960  0.86666667  1.0
  Ge  Ge1  1  0.40000000  0.29100960  0.06666667  1.0
  Ge  Ge1  1  0.40000000  0.29100960  0.26666667  1.0
  Ge  Ge1  1  0.40000000  0.29100960  0.46666667  1.0
  Ge  Ge1  1  0.40000000  0.29100960  0.66666667  1.0
  Ge  Ge1  1  0.40000000  0.29100960  0.86666667  1.0
  Ge  Ge1  1  0.40000000  0.49100960  0.06666667  1.0
  Ge  Ge1  1  0.40000000  0.49100960  0.26666667  1.0
  Ge  Ge1  1  0.40000000  0.49100960  0.46666667  1.0
  Ge  Ge1  1  0.40000000  0.49100960  0.66666667  1.0
  Ge  Ge1  1  0.40000000  0.49100960  0.86666667  1.0
  Ge  Ge1  1  0.40000000  0.69100960  0.06666667  1.0
  Ge  Ge1  1  0.40000000  0.69100960  0.26666667  1.0
  Ge  Ge1  1  0.40000000  0.69100960  0.46666667  1.0
  Ge  Ge1  1  0.40000000  0.69100960  0.66666667  1.0
  Ge  Ge1  1  0.40000000  0.69100960  0.86666667  1.0
  Ge  Ge1  1  0.40000000  0.89100960  0.06666667  1.0
  Ge  Ge1  1  0.40000000  0.89100960  0.26666667  1.0
  Ge  Ge1  1  0.40000000  0.89100960  0.46666667  1.0
  Ge  Ge1  1  0.40000000  0.89100960  0.66666667  1.0
  Ge  Ge1  1  0.40000000  0.89100960  0.86666667  1.0
  Ge  Ge1  1  0.60000000  0.09100960  0.06666667  1.0
  Ge  Ge1  1  0.60000000  0.09100960  0.26666667  1.0
  Ge  Ge1  1  0.60000000  0.09100960  0.46666667  1.0
  Ge  Ge1  1  0.60000000  0.09100960  0.66666667  1.0
  Ge  Ge1  1  0.60000000  0.09100960  0.86666667  1.0
  Ge  Ge1  1  0.60000000  0.29100960  0.06666667  1.0
  Ge  Ge1  1  0.60000000  0.29100960  0.26666667  1.0
  Ge  Ge1  1  0.60000000  0.29100960  0.46666667  1.0
  Ge  Ge1  1  0.60000000  0.29100960  0.66666667  1.0
  Ge  Ge1  1  0.60000000  0.29100960  0.86666667  1.0
  Ge  Ge1  1  0.60000000  0.49100960  0.06666667  1.0
  Ge  Ge1  1  0.60000000  0.49100960  0.26666667  1.0
  Ge  Ge1  1  0.60000000  0.49100960  0.46666667  1.0
  Ge  Ge1  1  0.60000000  0.49100960  0.66666667  1.0
  Ge  Ge1  1  0.60000000  0.49100960  0.86666667  1.0
  Ge  Ge1  1  0.60000000  0.69100960  0.06666667  1.0
  Ge  Ge1  1  0.60000000  0.69100960  0.26666667  1.0
  Ge  Ge1  1  0.60000000  0.69100960  0.46666667  1.0
  Ge  Ge1  1  0.60000000  0.69100960  0.66666667  1.0
  Ge  Ge1  1  0.60000000  0.69100960  0.86666667  1.0
  Ge  Ge1  1  0.60000000  0.89100960  0.06666667  1.0
  Ge  Ge1  1  0.60000000  0.89100960  0.26666667  1.0
  Ge  Ge1  1  0.60000000  0.89100960  0.46666667  1.0
  Ge  Ge1  1  0.60000000  0.89100960  0.66666667  1.0
  Ge  Ge1  1  0.60000000  0.89100960  0.86666667  1.0
  Ge  Ge1  1  0.80000000  0.09100960  0.06666667  1.0
  Ge  Ge1  1  0.80000000  0.09100960  0.26666667  1.0
  Ge  Ge1  1  0.80000000  0.09100960  0.46666667  1.0
  Ge  Ge1  1  0.80000000  0.09100960  0.66666667  1.0
  Ge  Ge1  1  0.80000000  0.09100960  0.86666667  1.0
  Ge  Ge1  1  0.80000000  0.29100960  0.06666667  1.0
  Ge  Ge1  1  0.80000000  0.29100960  0.26666667  1.0
  Ge  Ge1  1  0.80000000  0.29100960  0.46666667  1.0
  Ge  Ge1  1  0.80000000  0.29100960  0.66666667  1.0
  Ge  Ge1  1  0.80000000  0.29100960  0.86666667  1.0
  Ge  Ge1  1  0.80000000  0.49100960  0.06666667  1.0
  Ge  Ge1  1  0.80000000  0.49100960  0.26666667  1.0
  Ge  Ge1  1  0.80000000  0.49100960  0.46666667  1.0
  Ge  Ge1  1  0.80000000  0.49100960  0.66666667  1.0
  Ge  Ge1  1  0.80000000  0.49100960  0.86666667  1.0
  Ge  Ge1  1  0.80000000  0.69100960  0.06666667  1.0
  Ge  Ge1  1  0.80000000  0.69100960  0.26666667  1.0
  Ge  Ge1  1  0.80000000  0.69100960  0.46666667  1.0
  Ge  Ge1  1  0.80000000  0.69100960  0.66666667  1.0
  Ge  Ge1  1  0.80000000  0.69100960  0.86666667  1.0
  Ge  Ge1  1  0.80000000  0.89100960  0.06666667  1.0
  Ge  Ge1  1  0.80000000  0.89100960  0.26666667  1.0
  Ge  Ge1  1  0.80000000  0.89100960  0.46666667  1.0
  Ge  Ge1  1  0.80000000  0.89100960  0.66666667  1.0
  Ge  Ge1  1  0.80000000  0.89100960  0.86666667  1.0
  Ge  Ge2  1  0.09100960  0.00000000  0.13333333  1.0
  Ge  Ge2  1  0.09100960  0.00000000  0.33333333  1.0
  Ge  Ge2  1  0.09100960  0.00000000  0.53333333  1.0
  Ge  Ge2  1  0.09100960  0.00000000  0.73333333  1.0
  Ge  Ge2  1  0.09100960  0.00000000  0.93333333  1.0
  Ge  Ge2  1  0.09100960  0.20000000  0.13333333  1.0
  Ge  Ge2  1  0.09100960  0.20000000  0.33333333  1.0
  Ge  Ge2  1  0.09100960  0.20000000  0.53333333  1.0
  Ge  Ge2  1  0.09100960  0.20000000  0.73333333  1.0
  Ge  Ge2  1  0.09100960  0.20000000  0.93333333  1.0
  Ge  Ge2  1  0.09100960  0.40000000  0.13333333  1.0
  Ge  Ge2  1  0.09100960  0.40000000  0.33333333  1.0
  Ge  Ge2  1  0.09100960  0.40000000  0.53333333  1.0
  Ge  Ge2  1  0.09100960  0.40000000  0.73333333  1.0
  Ge  Ge2  1  0.09100960  0.40000000  0.93333333  1.0
  Ge  Ge2  1  0.09100960  0.60000000  0.13333333  1.0
  Ge  Ge2  1  0.09100960  0.60000000  0.33333333  1.0
  Ge  Ge2  1  0.09100960  0.60000000  0.53333333  1.0
  Ge  Ge2  1  0.09100960  0.60000000  0.73333333  1.0
  Ge  Ge2  1  0.09100960  0.60000000  0.93333333  1.0
  Ge  Ge2  1  0.09100960  0.80000000  0.13333333  1.0
  Ge  Ge2  1  0.09100960  0.80000000  0.33333333  1.0
  Ge  Ge2  1  0.09100960  0.80000000  0.53333333  1.0
  Ge  Ge2  1  0.09100960  0.80000000  0.73333333  1.0
  Ge  Ge2  1  0.09100960  0.80000000  0.93333333  1.0
  Ge  Ge2  1  0.29100960  0.00000000  0.13333333  1.0
  Ge  Ge2  1  0.29100960  0.00000000  0.33333333  1.0
  Ge  Ge2  1  0.29100960  0.00000000  0.53333333  1.0
  Ge  Ge2  1  0.29100960  0.00000000  0.73333333  1.0
  Ge  Ge2  1  0.29100960  0.00000000  0.93333333  1.0
  Ge  Ge2  1  0.29100960  0.20000000  0.13333333  1.0
  Ge  Ge2  1  0.29100960  0.20000000  0.33333333  1.0
  Ge  Ge2  1  0.29100960  0.20000000  0.53333333  1.0
  Ge  Ge2  1  0.29100960  0.20000000  0.73333333  1.0
  Ge  Ge2  1  0.29100960  0.20000000  0.93333333  1.0
  Ge  Ge2  1  0.29100960  0.40000000  0.13333333  1.0
  Ge  Ge2  1  0.29100960  0.40000000  0.33333333  1.0
  Ge  Ge2  1  0.29100960  0.40000000  0.53333333  1.0
  Ge  Ge2  1  0.29100960  0.40000000  0.73333333  1.0
  Ge  Ge2  1  0.29100960  0.40000000  0.93333333  1.0
  Ge  Ge2  1  0.29100960  0.60000000  0.13333333  1.0
  Ge  Ge2  1  0.29100960  0.60000000  0.33333333  1.0
  Ge  Ge2  1  0.29100960  0.60000000  0.53333333  1.0
  Ge  Ge2  1  0.29100960  0.60000000  0.73333333  1.0
  Ge  Ge2  1  0.29100960  0.60000000  0.93333333  1.0
  Ge  Ge2  1  0.29100960  0.80000000  0.13333333  1.0
  Ge  Ge2  1  0.29100960  0.80000000  0.33333333  1.0
  Ge  Ge2  1  0.29100960  0.80000000  0.53333333  1.0
  Ge  Ge2  1  0.29100960  0.80000000  0.73333333  1.0
  Ge  Ge2  1  0.29100960  0.80000000  0.93333333  1.0
  Ge  Ge2  1  0.49100960  0.00000000  0.13333333  1.0
  Ge  Ge2  1  0.49100960  0.00000000  0.33333333  1.0
  Ge  Ge2  1  0.49100960  0.00000000  0.53333333  1.0
  Ge  Ge2  1  0.49100960  0.00000000  0.73333333  1.0
  Ge  Ge2  1  0.49100960  0.00000000  0.93333333  1.0
  Ge  Ge2  1  0.49100960  0.20000000  0.13333333  1.0
  Ge  Ge2  1  0.49100960  0.20000000  0.33333333  1.0
  Ge  Ge2  1  0.49100960  0.20000000  0.53333333  1.0
  Ge  Ge2  1  0.49100960  0.20000000  0.73333333  1.0
  Ge  Ge2  1  0.49100960  0.20000000  0.93333333  1.0
  Ge  Ge2  1  0.49100960  0.40000000  0.13333333  1.0
  Ge  Ge2  1  0.49100960  0.40000000  0.33333333  1.0
  Ge  Ge2  1  0.49100960  0.40000000  0.53333333  1.0
  Ge  Ge2  1  0.49100960  0.40000000  0.73333333  1.0
  Ge  Ge2  1  0.49100960  0.40000000  0.93333333  1.0
  Ge  Ge2  1  0.49100960  0.60000000  0.13333333  1.0
  Ge  Ge2  1  0.49100960  0.60000000  0.33333333  1.0
  Ge  Ge2  1  0.49100960  0.60000000  0.53333333  1.0
  Ge  Ge2  1  0.49100960  0.60000000  0.73333333  1.0
  Ge  Ge2  1  0.49100960  0.60000000  0.93333333  1.0
  Ge  Ge2  1  0.49100960  0.80000000  0.13333333  1.0
  Ge  Ge2  1  0.49100960  0.80000000  0.33333333  1.0
  Ge  Ge2  1  0.49100960  0.80000000  0.53333333  1.0
  Ge  Ge2  1  0.49100960  0.80000000  0.73333333  1.0
  Ge  Ge2  1  0.49100960  0.80000000  0.93333333  1.0
  Ge  Ge2  1  0.69100960  0.00000000  0.13333333  1.0
  Ge  Ge2  1  0.69100960  0.00000000  0.33333333  1.0
  Ge  Ge2  1  0.69100960  0.00000000  0.53333333  1.0
  Ge  Ge2  1  0.69100960  0.00000000  0.73333333  1.0
  Ge  Ge2  1  0.69100960  0.00000000  0.93333333  1.0
  Ge  Ge2  1  0.69100960  0.20000000  0.13333333  1.0
  Ge  Ge2  1  0.69100960  0.20000000  0.33333333  1.0
  Ge  Ge2  1  0.69100960  0.20000000  0.53333333  1.0
  Ge  Ge2  1  0.69100960  0.20000000  0.73333333  1.0
  Ge  Ge2  1  0.69100960  0.20000000  0.93333333  1.0
  Ge  Ge2  1  0.69100960  0.40000000  0.13333333  1.0
  Ge  Ge2  1  0.69100960  0.40000000  0.33333333  1.0
  Ge  Ge2  1  0.69100960  0.40000000  0.53333333  1.0
  Ge  Ge2  1  0.69100960  0.40000000  0.73333333  1.0
  Ge  Ge2  1  0.69100960  0.40000000  0.93333333  1.0
  Ge  Ge2  1  0.69100960  0.60000000  0.13333333  1.0
  Ge  Ge2  1  0.69100960  0.60000000  0.33333333  1.0
  Ge  Ge2  1  0.69100960  0.60000000  0.53333333  1.0
  Ge  Ge2  1  0.69100960  0.60000000  0.73333333  1.0
  Ge  Ge2  1  0.69100960  0.60000000  0.93333333  1.0
  Ge  Ge2  1  0.69100960  0.80000000  0.13333333  1.0
  Ge  Ge2  1  0.69100960  0.80000000  0.33333333  1.0
  Ge  Ge2  1  0.69100960  0.80000000  0.53333333  1.0
  Ge  Ge2  1  0.69100960  0.80000000  0.73333333  1.0
  Ge  Ge2  1  0.69100960  0.80000000  0.93333333  1.0
  Ge  Ge2  1  0.89100960  0.00000000  0.13333333  1.0
  Ge  Ge2  1  0.89100960  0.00000000  0.33333333  1.0
  Ge  Ge2  1  0.89100960  0.00000000  0.53333333  1.0
  Ge  Ge2  1  0.89100960  0.00000000  0.73333333  1.0
  Ge  Ge2  1  0.89100960  0.00000000  0.93333333  1.0
  Ge  Ge2  1  0.89100960  0.20000000  0.13333333  1.0
  Ge  Ge2  1  0.89100960  0.20000000  0.33333333  1.0
  Ge  Ge2  1  0.89100960  0.20000000  0.53333333  1.0
  Ge  Ge2  1  0.89100960  0.20000000  0.73333333  1.0
  Ge  Ge2  1  0.89100960  0.20000000  0.93333333  1.0
  Ge  Ge2  1  0.89100960  0.40000000  0.13333333  1.0
  Ge  Ge2  1  0.89100960  0.40000000  0.33333333  1.0
  Ge  Ge2  1  0.89100960  0.40000000  0.53333333  1.0
  Ge  Ge2  1  0.89100960  0.40000000  0.73333333  1.0
  Ge  Ge2  1  0.89100960  0.40000000  0.93333333  1.0
  Ge  Ge2  1  0.89100960  0.60000000  0.13333333  1.0
  Ge  Ge2  1  0.89100960  0.60000000  0.33333333  1.0
  Ge  Ge2  1  0.89100960  0.60000000  0.53333333  1.0
  Ge  Ge2  1  0.89100960  0.60000000  0.73333333  1.0
  Ge  Ge2  1  0.89100960  0.60000000  0.93333333  1.0
  Ge  Ge2  1  0.89100960  0.80000000  0.13333333  1.0
  Ge  Ge2  1  0.89100960  0.80000000  0.33333333  1.0
  Ge  Ge2  1  0.89100960  0.80000000  0.53333333  1.0
  Ge  Ge2  1  0.89100960  0.80000000  0.73333333  1.0
  Ge  Ge2  1  0.89100960  0.80000000  0.93333333  1.0
  O  O3  1  0.05970960  0.07953640  0.04833740  1.0
  O  O3  1  0.05970960  0.07953640  0.24833740  1.0
  O  O3  1  0.05970960  0.07953640  0.44833740  1.0
  O  O3  1  0.05970960  0.07953640  0.64833740  1.0
  O  O3  1  0.05970960  0.07953640  0.84833740  1.0
  O  O3  1  0.05970960  0.27953640  0.04833740  1.0
  O  O3  1  0.05970960  0.27953640  0.24833740  1.0
  O  O3  1  0.05970960  0.27953640  0.44833740  1.0
  O  O3  1  0.05970960  0.27953640  0.64833740  1.0
  O  O3  1  0.05970960  0.27953640  0.84833740  1.0
  O  O3  1  0.05970960  0.47953640  0.04833740  1.0
  O  O3  1  0.05970960  0.47953640  0.24833740  1.0
  O  O3  1  0.05970960  0.47953640  0.44833740  1.0
  O  O3  1  0.05970960  0.47953640  0.64833740  1.0
  O  O3  1  0.05970960  0.47953640  0.84833740  1.0
  O  O3  1  0.05970960  0.67953640  0.04833740  1.0
  O  O3  1  0.05970960  0.67953640  0.24833740  1.0
  O  O3  1  0.05970960  0.67953640  0.44833740  1.0
  O  O3  1  0.05970960  0.67953640  0.64833740  1.0
  O  O3  1  0.05970960  0.67953640  0.84833740  1.0
  O  O3  1  0.05970960  0.87953640  0.04833740  1.0
  O  O3  1  0.05970960  0.87953640  0.24833740  1.0
  O  O3  1  0.05970960  0.87953640  0.44833740  1.0
  O  O3  1  0.05970960  0.87953640  0.64833740  1.0
  O  O3  1  0.05970960  0.87953640  0.84833740  1.0
  O  O3  1  0.25970960  0.07953640  0.04833740  1.0
  O  O3  1  0.25970960  0.07953640  0.24833740  1.0
  O  O3  1  0.25970960  0.07953640  0.44833740  1.0
  O  O3  1  0.25970960  0.07953640  0.64833740  1.0
  O  O3  1  0.25970960  0.07953640  0.84833740  1.0
  O  O3  1  0.25970960  0.27953640  0.04833740  1.0
  O  O3  1  0.25970960  0.27953640  0.24833740  1.0
  O  O3  1  0.25970960  0.27953640  0.44833740  1.0
  O  O3  1  0.25970960  0.27953640  0.64833740  1.0
  O  O3  1  0.25970960  0.27953640  0.84833740  1.0
  O  O3  1  0.25970960  0.47953640  0.04833740  1.0
  O  O3  1  0.25970960  0.47953640  0.24833740  1.0
  O  O3  1  0.25970960  0.47953640  0.44833740  1.0
  O  O3  1  0.25970960  0.47953640  0.64833740  1.0
  O  O3  1  0.25970960  0.47953640  0.84833740  1.0
  O  O3  1  0.25970960  0.67953640  0.04833740  1.0
  O  O3  1  0.25970960  0.67953640  0.24833740  1.0
  O  O3  1  0.25970960  0.67953640  0.44833740  1.0
  O  O3  1  0.25970960  0.67953640  0.64833740  1.0
  O  O3  1  0.25970960  0.67953640  0.84833740  1.0
  O  O3  1  0.25970960  0.87953640  0.04833740  1.0
  O  O3  1  0.25970960  0.87953640  0.24833740  1.0
  O  O3  1  0.25970960  0.87953640  0.44833740  1.0
  O  O3  1  0.25970960  0.87953640  0.64833740  1.0
  O  O3  1  0.25970960  0.87953640  0.84833740  1.0
  O  O3  1  0.45970960  0.07953640  0.04833740  1.0
  O  O3  1  0.45970960  0.07953640  0.24833740  1.0
  O  O3  1  0.45970960  0.07953640  0.44833740  1.0
  O  O3  1  0.45970960  0.07953640  0.64833740  1.0
  O  O3  1  0.45970960  0.07953640  0.84833740  1.0
  O  O3  1  0.45970960  0.27953640  0.04833740  1.0
  O  O3  1  0.45970960  0.27953640  0.24833740  1.0
  O  O3  1  0.45970960  0.27953640  0.44833740  1.0
  O  O3  1  0.45970960  0.27953640  0.64833740  1.0
  O  O3  1  0.45970960  0.27953640  0.84833740  1.0
  O  O3  1  0.45970960  0.47953640  0.04833740  1.0
  O  O3  1  0.45970960  0.47953640  0.24833740  1.0
  O  O3  1  0.45970960  0.47953640  0.44833740  1.0
  O  O3  1  0.45970960  0.47953640  0.64833740  1.0
  O  O3  1  0.45970960  0.47953640  0.84833740  1.0
  O  O3  1  0.45970960  0.67953640  0.04833740  1.0
  O  O3  1  0.45970960  0.67953640  0.24833740  1.0
  O  O3  1  0.45970960  0.67953640  0.44833740  1.0
  O  O3  1  0.45970960  0.67953640  0.64833740  1.0
  O  O3  1  0.45970960  0.67953640  0.84833740  1.0
  O  O3  1  0.45970960  0.87953640  0.04833740  1.0
  O  O3  1  0.45970960  0.87953640  0.24833740  1.0
  O  O3  1  0.45970960  0.87953640  0.44833740  1.0
  O  O3  1  0.45970960  0.87953640  0.64833740  1.0
  O  O3  1  0.45970960  0.87953640  0.84833740  1.0
  O  O3  1  0.65970960  0.07953640  0.04833740  1.0
  O  O3  1  0.65970960  0.07953640  0.24833740  1.0
  O  O3  1  0.65970960  0.07953640  0.44833740  1.0
  O  O3  1  0.65970960  0.07953640  0.64833740  1.0
  O  O3  1  0.65970960  0.07953640  0.84833740  1.0
  O  O3  1  0.65970960  0.27953640  0.04833740  1.0
  O  O3  1  0.65970960  0.27953640  0.24833740  1.0
  O  O3  1  0.65970960  0.27953640  0.44833740  1.0
  O  O3  1  0.65970960  0.27953640  0.64833740  1.0
  O  O3  1  0.65970960  0.27953640  0.84833740  1.0
  O  O3  1  0.65970960  0.47953640  0.04833740  1.0
  O  O3  1  0.65970960  0.47953640  0.24833740  1.0
  O  O3  1  0.65970960  0.47953640  0.44833740  1.0
  O  O3  1  0.65970960  0.47953640  0.64833740  1.0
  O  O3  1  0.65970960  0.47953640  0.84833740  1.0
  O  O3  1  0.65970960  0.67953640  0.04833740  1.0
  O  O3  1  0.65970960  0.67953640  0.24833740  1.0
  O  O3  1  0.65970960  0.67953640  0.44833740  1.0
  O  O3  1  0.65970960  0.67953640  0.64833740  1.0
  O  O3  1  0.65970960  0.67953640  0.84833740  1.0
  O  O3  1  0.65970960  0.87953640  0.04833740  1.0
  O  O3  1  0.65970960  0.87953640  0.24833740  1.0
  O  O3  1  0.65970960  0.87953640  0.44833740  1.0
  O  O3  1  0.65970960  0.87953640  0.64833740  1.0
  O  O3  1  0.65970960  0.87953640  0.84833740  1.0
  O  O3  1  0.85970960  0.07953640  0.04833740  1.0
  O  O3  1  0.85970960  0.07953640  0.24833740  1.0
  O  O3  1  0.85970960  0.07953640  0.44833740  1.0
  O  O3  1  0.85970960  0.07953640  0.64833740  1.0
  O  O3  1  0.85970960  0.07953640  0.84833740  1.0
  O  O3  1  0.85970960  0.27953640  0.04833740  1.0
  O  O3  1  0.85970960  0.27953640  0.24833740  1.0
  O  O3  1  0.85970960  0.27953640  0.44833740  1.0
  O  O3  1  0.85970960  0.27953640  0.64833740  1.0
  O  O3  1  0.85970960  0.27953640  0.84833740  1.0
  O  O3  1  0.85970960  0.47953640  0.04833740  1.0
  O  O3  1  0.85970960  0.47953640  0.24833740  1.0
  O  O3  1  0.85970960  0.47953640  0.44833740  1.0
  O  O3  1  0.85970960  0.47953640  0.64833740  1.0
  O  O3  1  0.85970960  0.47953640  0.84833740  1.0
  O  O3  1  0.85970960  0.67953640  0.04833740  1.0
  O  O3  1  0.85970960  0.67953640  0.24833740  1.0
  O  O3  1  0.85970960  0.67953640  0.44833740  1.0
  O  O3  1  0.85970960  0.67953640  0.64833740  1.0
  O  O3  1  0.85970960  0.67953640  0.84833740  1.0
  O  O3  1  0.85970960  0.87953640  0.04833740  1.0
  O  O3  1  0.85970960  0.87953640  0.24833740  1.0
  O  O3  1  0.85970960  0.87953640  0.44833740  1.0
  O  O3  1  0.85970960  0.87953640  0.64833740  1.0
  O  O3  1  0.85970960  0.87953640  0.84833740  1.0
  O  O4  1  0.12046360  0.18017320  0.18167073  1.0
  O  O4  1  0.12046360  0.18017320  0.38167073  1.0
  O  O4  1  0.12046360  0.18017320  0.58167073  1.0
  O  O4  1  0.12046360  0.18017320  0.78167073  1.0
  O  O4  1  0.12046360  0.18017320  0.98167073  1.0
  O  O4  1  0.12046360  0.38017320  0.18167073  1.0
  O  O4  1  0.12046360  0.38017320  0.38167073  1.0
  O  O4  1  0.12046360  0.38017320  0.58167073  1.0
  O  O4  1  0.12046360  0.38017320  0.78167073  1.0
  O  O4  1  0.12046360  0.38017320  0.98167073  1.0
  O  O4  1  0.12046360  0.58017320  0.18167073  1.0
  O  O4  1  0.12046360  0.58017320  0.38167073  1.0
  O  O4  1  0.12046360  0.58017320  0.58167073  1.0
  O  O4  1  0.12046360  0.58017320  0.78167073  1.0
  O  O4  1  0.12046360  0.58017320  0.98167073  1.0
  O  O4  1  0.12046360  0.78017320  0.18167073  1.0
  O  O4  1  0.12046360  0.78017320  0.38167073  1.0
  O  O4  1  0.12046360  0.78017320  0.58167073  1.0
  O  O4  1  0.12046360  0.78017320  0.78167073  1.0
  O  O4  1  0.12046360  0.78017320  0.98167073  1.0
  O  O4  1  0.12046360  0.98017320  0.18167073  1.0
  O  O4  1  0.12046360  0.98017320  0.38167073  1.0
  O  O4  1  0.12046360  0.98017320  0.58167073  1.0
  O  O4  1  0.12046360  0.98017320  0.78167073  1.0
  O  O4  1  0.12046360  0.98017320  0.98167073  1.0
  O  O4  1  0.32046360  0.18017320  0.18167073  1.0
  O  O4  1  0.32046360  0.18017320  0.38167073  1.0
  O  O4  1  0.32046360  0.18017320  0.58167073  1.0
  O  O4  1  0.32046360  0.18017320  0.78167073  1.0
  O  O4  1  0.32046360  0.18017320  0.98167073  1.0
  O  O4  1  0.32046360  0.38017320  0.18167073  1.0
  O  O4  1  0.32046360  0.38017320  0.38167073  1.0
  O  O4  1  0.32046360  0.38017320  0.58167073  1.0
  O  O4  1  0.32046360  0.38017320  0.78167073  1.0
  O  O4  1  0.32046360  0.38017320  0.98167073  1.0
  O  O4  1  0.32046360  0.58017320  0.18167073  1.0
  O  O4  1  0.32046360  0.58017320  0.38167073  1.0
  O  O4  1  0.32046360  0.58017320  0.58167073  1.0
  O  O4  1  0.32046360  0.58017320  0.78167073  1.0
  O  O4  1  0.32046360  0.58017320  0.98167073  1.0
  O  O4  1  0.32046360  0.78017320  0.18167073  1.0
  O  O4  1  0.32046360  0.78017320  0.38167073  1.0
  O  O4  1  0.32046360  0.78017320  0.58167073  1.0
  O  O4  1  0.32046360  0.78017320  0.78167073  1.0
  O  O4  1  0.32046360  0.78017320  0.98167073  1.0
  O  O4  1  0.32046360  0.98017320  0.18167073  1.0
  O  O4  1  0.32046360  0.98017320  0.38167073  1.0
  O  O4  1  0.32046360  0.98017320  0.58167073  1.0
  O  O4  1  0.32046360  0.98017320  0.78167073  1.0
  O  O4  1  0.32046360  0.98017320  0.98167073  1.0
  O  O4  1  0.52046360  0.18017320  0.18167073  1.0
  O  O4  1  0.52046360  0.18017320  0.38167073  1.0
  O  O4  1  0.52046360  0.18017320  0.58167073  1.0
  O  O4  1  0.52046360  0.18017320  0.78167073  1.0
  O  O4  1  0.52046360  0.18017320  0.98167073  1.0
  O  O4  1  0.52046360  0.38017320  0.18167073  1.0
  O  O4  1  0.52046360  0.38017320  0.38167073  1.0
  O  O4  1  0.52046360  0.38017320  0.58167073  1.0
  O  O4  1  0.52046360  0.38017320  0.78167073  1.0
  O  O4  1  0.52046360  0.38017320  0.98167073  1.0
  O  O4  1  0.52046360  0.58017320  0.18167073  1.0
  O  O4  1  0.52046360  0.58017320  0.38167073  1.0
  O  O4  1  0.52046360  0.58017320  0.58167073  1.0
  O  O4  1  0.52046360  0.58017320  0.78167073  1.0
  O  O4  1  0.52046360  0.58017320  0.98167073  1.0
  O  O4  1  0.52046360  0.78017320  0.18167073  1.0
  O  O4  1  0.52046360  0.78017320  0.38167073  1.0
  O  O4  1  0.52046360  0.78017320  0.58167073  1.0
  O  O4  1  0.52046360  0.78017320  0.78167073  1.0
  O  O4  1  0.52046360  0.78017320  0.98167073  1.0
  O  O4  1  0.52046360  0.98017320  0.18167073  1.0
  O  O4  1  0.52046360  0.98017320  0.38167073  1.0
  O  O4  1  0.52046360  0.98017320  0.58167073  1.0
  O  O4  1  0.52046360  0.98017320  0.78167073  1.0
  O  O4  1  0.52046360  0.98017320  0.98167073  1.0
  O  O4  1  0.72046360  0.18017320  0.18167073  1.0
  O  O4  1  0.72046360  0.18017320  0.38167073  1.0
  O  O4  1  0.72046360  0.18017320  0.58167073  1.0
  O  O4  1  0.72046360  0.18017320  0.78167073  1.0
  O  O4  1  0.72046360  0.18017320  0.98167073  1.0
  O  O4  1  0.72046360  0.38017320  0.18167073  1.0
  O  O4  1  0.72046360  0.38017320  0.38167073  1.0
  O  O4  1  0.72046360  0.38017320  0.58167073  1.0
  O  O4  1  0.72046360  0.38017320  0.78167073  1.0
  O  O4  1  0.72046360  0.38017320  0.98167073  1.0
  O  O4  1  0.72046360  0.58017320  0.18167073  1.0
  O  O4  1  0.72046360  0.58017320  0.38167073  1.0
  O  O4  1  0.72046360  0.58017320  0.58167073  1.0
  O  O4  1  0.72046360  0.58017320  0.78167073  1.0
  O  O4  1  0.72046360  0.58017320  0.98167073  1.0
  O  O4  1  0.72046360  0.78017320  0.18167073  1.0
  O  O4  1  0.72046360  0.78017320  0.38167073  1.0
  O  O4  1  0.72046360  0.78017320  0.58167073  1.0
  O  O4  1  0.72046360  0.78017320  0.78167073  1.0
  O  O4  1  0.72046360  0.78017320  0.98167073  1.0
  O  O4  1  0.72046360  0.98017320  0.18167073  1.0
  O  O4  1  0.72046360  0.98017320  0.38167073  1.0
  O  O4  1  0.72046360  0.98017320  0.58167073  1.0
  O  O4  1  0.72046360  0.98017320  0.78167073  1.0
  O  O4  1  0.72046360  0.98017320  0.98167073  1.0
  O  O4  1  0.92046360  0.18017320  0.18167073  1.0
  O  O4  1  0.92046360  0.18017320  0.38167073  1.0
  O  O4  1  0.92046360  0.18017320  0.58167073  1.0
  O  O4  1  0.92046360  0.18017320  0.78167073  1.0
  O  O4  1  0.92046360  0.18017320  0.98167073  1.0
  O  O4  1  0.92046360  0.38017320  0.18167073  1.0
  O  O4  1  0.92046360  0.38017320  0.38167073  1.0
  O  O4  1  0.92046360  0.38017320  0.58167073  1.0
  O  O4  1  0.92046360  0.38017320  0.78167073  1.0
  O  O4  1  0.92046360  0.38017320  0.98167073  1.0
  O  O4  1  0.92046360  0.58017320  0.18167073  1.0
  O  O4  1  0.92046360  0.58017320  0.38167073  1.0
  O  O4  1  0.92046360  0.58017320  0.58167073  1.0
  O  O4  1  0.92046360  0.58017320  0.78167073  1.0
  O  O4  1  0.92046360  0.58017320  0.98167073  1.0
  O  O4  1  0.92046360  0.78017320  0.18167073  1.0
  O  O4  1  0.92046360  0.78017320  0.38167073  1.0
  O  O4  1  0.92046360  0.78017320  0.58167073  1.0
  O  O4  1  0.92046360  0.78017320  0.78167073  1.0
  O  O4  1  0.92046360  0.78017320  0.98167073  1.0
  O  O4  1  0.92046360  0.98017320  0.18167073  1.0
  O  O4  1  0.92046360  0.98017320  0.38167073  1.0
  O  O4  1  0.92046360  0.98017320  0.58167073  1.0
  O  O4  1  0.92046360  0.98017320  0.78167073  1.0
  O  O4  1  0.92046360  0.98017320  0.98167073  1.0
  O  O5  1  0.01982680  0.14029040  0.11500407  1.0
  O  O5  1  0.01982680  0.14029040  0.31500407  1.0
  O  O5  1  0.01982680  0.14029040  0.51500407  1.0
  O  O5  1  0.01982680  0.14029040  0.71500407  1.0
  O  O5  1  0.01982680  0.14029040  0.91500407  1.0
  O  O5  1  0.01982680  0.34029040  0.11500407  1.0
  O  O5  1  0.01982680  0.34029040  0.31500407  1.0
  O  O5  1  0.01982680  0.34029040  0.51500407  1.0
  O  O5  1  0.01982680  0.34029040  0.71500407  1.0
  O  O5  1  0.01982680  0.34029040  0.91500407  1.0
  O  O5  1  0.01982680  0.54029040  0.11500407  1.0
  O  O5  1  0.01982680  0.54029040  0.31500407  1.0
  O  O5  1  0.01982680  0.54029040  0.51500407  1.0
  O  O5  1  0.01982680  0.54029040  0.71500407  1.0
  O  O5  1  0.01982680  0.54029040  0.91500407  1.0
  O  O5  1  0.01982680  0.74029040  0.11500407  1.0
  O  O5  1  0.01982680  0.74029040  0.31500407  1.0
  O  O5  1  0.01982680  0.74029040  0.51500407  1.0
  O  O5  1  0.01982680  0.74029040  0.71500407  1.0
  O  O5  1  0.01982680  0.74029040  0.91500407  1.0
  O  O5  1  0.01982680  0.94029040  0.11500407  1.0
  O  O5  1  0.01982680  0.94029040  0.31500407  1.0
  O  O5  1  0.01982680  0.94029040  0.51500407  1.0
  O  O5  1  0.01982680  0.94029040  0.71500407  1.0
  O  O5  1  0.01982680  0.94029040  0.91500407  1.0
  O  O5  1  0.21982680  0.14029040  0.11500407  1.0
  O  O5  1  0.21982680  0.14029040  0.31500407  1.0
  O  O5  1  0.21982680  0.14029040  0.51500407  1.0
  O  O5  1  0.21982680  0.14029040  0.71500407  1.0
  O  O5  1  0.21982680  0.14029040  0.91500407  1.0
  O  O5  1  0.21982680  0.34029040  0.11500407  1.0
  O  O5  1  0.21982680  0.34029040  0.31500407  1.0
  O  O5  1  0.21982680  0.34029040  0.51500407  1.0
  O  O5  1  0.21982680  0.34029040  0.71500407  1.0
  O  O5  1  0.21982680  0.34029040  0.91500407  1.0
  O  O5  1  0.21982680  0.54029040  0.11500407  1.0
  O  O5  1  0.21982680  0.54029040  0.31500407  1.0
  O  O5  1  0.21982680  0.54029040  0.51500407  1.0
  O  O5  1  0.21982680  0.54029040  0.71500407  1.0
  O  O5  1  0.21982680  0.54029040  0.91500407  1.0
  O  O5  1  0.21982680  0.74029040  0.11500407  1.0
  O  O5  1  0.21982680  0.74029040  0.31500407  1.0
  O  O5  1  0.21982680  0.74029040  0.51500407  1.0
  O  O5  1  0.21982680  0.74029040  0.71500407  1.0
  O  O5  1  0.21982680  0.74029040  0.91500407  1.0
  O  O5  1  0.21982680  0.94029040  0.11500407  1.0
  O  O5  1  0.21982680  0.94029040  0.31500407  1.0
  O  O5  1  0.21982680  0.94029040  0.51500407  1.0
  O  O5  1  0.21982680  0.94029040  0.71500407  1.0
  O  O5  1  0.21982680  0.94029040  0.91500407  1.0
  O  O5  1  0.41982680  0.14029040  0.11500407  1.0
  O  O5  1  0.41982680  0.14029040  0.31500407  1.0
  O  O5  1  0.41982680  0.14029040  0.51500407  1.0
  O  O5  1  0.41982680  0.14029040  0.71500407  1.0
  O  O5  1  0.41982680  0.14029040  0.91500407  1.0
  O  O5  1  0.41982680  0.34029040  0.11500407  1.0
  O  O5  1  0.41982680  0.34029040  0.31500407  1.0
  O  O5  1  0.41982680  0.34029040  0.51500407  1.0
  O  O5  1  0.41982680  0.34029040  0.71500407  1.0
  O  O5  1  0.41982680  0.34029040  0.91500407  1.0
  O  O5  1  0.41982680  0.54029040  0.11500407  1.0
  O  O5  1  0.41982680  0.54029040  0.31500407  1.0
  O  O5  1  0.41982680  0.54029040  0.51500407  1.0
  O  O5  1  0.41982680  0.54029040  0.71500407  1.0
  O  O5  1  0.41982680  0.54029040  0.91500407  1.0
  O  O5  1  0.41982680  0.74029040  0.11500407  1.0
  O  O5  1  0.41982680  0.74029040  0.31500407  1.0
  O  O5  1  0.41982680  0.74029040  0.51500407  1.0
  O  O5  1  0.41982680  0.74029040  0.71500407  1.0
  O  O5  1  0.41982680  0.74029040  0.91500407  1.0
  O  O5  1  0.41982680  0.94029040  0.11500407  1.0
  O  O5  1  0.41982680  0.94029040  0.31500407  1.0
  O  O5  1  0.41982680  0.94029040  0.51500407  1.0
  O  O5  1  0.41982680  0.94029040  0.71500407  1.0
  O  O5  1  0.41982680  0.94029040  0.91500407  1.0
  O  O5  1  0.61982680  0.14029040  0.11500407  1.0
  O  O5  1  0.61982680  0.14029040  0.31500407  1.0
  O  O5  1  0.61982680  0.14029040  0.51500407  1.0
  O  O5  1  0.61982680  0.14029040  0.71500407  1.0
  O  O5  1  0.61982680  0.14029040  0.91500407  1.0
  O  O5  1  0.61982680  0.34029040  0.11500407  1.0
  O  O5  1  0.61982680  0.34029040  0.31500407  1.0
  O  O5  1  0.61982680  0.34029040  0.51500407  1.0
  O  O5  1  0.61982680  0.34029040  0.71500407  1.0
  O  O5  1  0.61982680  0.34029040  0.91500407  1.0
  O  O5  1  0.61982680  0.54029040  0.11500407  1.0
  O  O5  1  0.61982680  0.54029040  0.31500407  1.0
  O  O5  1  0.61982680  0.54029040  0.51500407  1.0
  O  O5  1  0.61982680  0.54029040  0.71500407  1.0
  O  O5  1  0.61982680  0.54029040  0.91500407  1.0
  O  O5  1  0.61982680  0.74029040  0.11500407  1.0
  O  O5  1  0.61982680  0.74029040  0.31500407  1.0
  O  O5  1  0.61982680  0.74029040  0.51500407  1.0
  O  O5  1  0.61982680  0.74029040  0.71500407  1.0
  O  O5  1  0.61982680  0.74029040  0.91500407  1.0
  O  O5  1  0.61982680  0.94029040  0.11500407  1.0
  O  O5  1  0.61982680  0.94029040  0.31500407  1.0
  O  O5  1  0.61982680  0.94029040  0.51500407  1.0
  O  O5  1  0.61982680  0.94029040  0.71500407  1.0
  O  O5  1  0.61982680  0.94029040  0.91500407  1.0
  O  O5  1  0.81982680  0.14029040  0.11500407  1.0
  O  O5  1  0.81982680  0.14029040  0.31500407  1.0
  O  O5  1  0.81982680  0.14029040  0.51500407  1.0
  O  O5  1  0.81982680  0.14029040  0.71500407  1.0
  O  O5  1  0.81982680  0.14029040  0.91500407  1.0
  O  O5  1  0.81982680  0.34029040  0.11500407  1.0
  O  O5  1  0.81982680  0.34029040  0.31500407  1.0
  O  O5  1  0.81982680  0.34029040  0.51500407  1.0
  O  O5  1  0.81982680  0.34029040  0.71500407  1.0
  O  O5  1  0.81982680  0.34029040  0.91500407  1.0
  O  O5  1  0.81982680  0.54029040  0.11500407  1.0
  O  O5  1  0.81982680  0.54029040  0.31500407  1.0
  O  O5  1  0.81982680  0.54029040  0.51500407  1.0
  O  O5  1  0.81982680  0.54029040  0.71500407  1.0
  O  O5  1  0.81982680  0.54029040  0.91500407  1.0
  O  O5  1  0.81982680  0.74029040  0.11500407  1.0
  O  O5  1  0.81982680  0.74029040  0.31500407  1.0
  O  O5  1  0.81982680  0.74029040  0.51500407  1.0
  O  O5  1  0.81982680  0.74029040  0.71500407  1.0
  O  O5  1  0.81982680  0.74029040  0.91500407  1.0
  O  O5  1  0.81982680  0.94029040  0.11500407  1.0
  O  O5  1  0.81982680  0.94029040  0.31500407  1.0
  O  O5  1  0.81982680  0.94029040  0.51500407  1.0
  O  O5  1  0.81982680  0.94029040  0.71500407  1.0
  O  O5  1  0.81982680  0.94029040  0.91500407  1.0
  O  O6  1  0.07953640  0.05970960  0.15166260  1.0
  O  O6  1  0.07953640  0.05970960  0.35166260  1.0
  O  O6  1  0.07953640  0.05970960  0.55166260  1.0
  O  O6  1  0.07953640  0.05970960  0.75166260  1.0
  O  O6  1  0.07953640  0.05970960  0.95166260  1.0
  O  O6  1  0.07953640  0.25970960  0.15166260  1.0
  O  O6  1  0.07953640  0.25970960  0.35166260  1.0
  O  O6  1  0.07953640  0.25970960  0.55166260  1.0
  O  O6  1  0.07953640  0.25970960  0.75166260  1.0
  O  O6  1  0.07953640  0.25970960  0.95166260  1.0
  O  O6  1  0.07953640  0.45970960  0.15166260  1.0
  O  O6  1  0.07953640  0.45970960  0.35166260  1.0
  O  O6  1  0.07953640  0.45970960  0.55166260  1.0
  O  O6  1  0.07953640  0.45970960  0.75166260  1.0
  O  O6  1  0.07953640  0.45970960  0.95166260  1.0
  O  O6  1  0.07953640  0.65970960  0.15166260  1.0
  O  O6  1  0.07953640  0.65970960  0.35166260  1.0
  O  O6  1  0.07953640  0.65970960  0.55166260  1.0
  O  O6  1  0.07953640  0.65970960  0.75166260  1.0
  O  O6  1  0.07953640  0.65970960  0.95166260  1.0
  O  O6  1  0.07953640  0.85970960  0.15166260  1.0
  O  O6  1  0.07953640  0.85970960  0.35166260  1.0
  O  O6  1  0.07953640  0.85970960  0.55166260  1.0
  O  O6  1  0.07953640  0.85970960  0.75166260  1.0
  O  O6  1  0.07953640  0.85970960  0.95166260  1.0
  O  O6  1  0.27953640  0.05970960  0.15166260  1.0
  O  O6  1  0.27953640  0.05970960  0.35166260  1.0
  O  O6  1  0.27953640  0.05970960  0.55166260  1.0
  O  O6  1  0.27953640  0.05970960  0.75166260  1.0
  O  O6  1  0.27953640  0.05970960  0.95166260  1.0
  O  O6  1  0.27953640  0.25970960  0.15166260  1.0
  O  O6  1  0.27953640  0.25970960  0.35166260  1.0
  O  O6  1  0.27953640  0.25970960  0.55166260  1.0
  O  O6  1  0.27953640  0.25970960  0.75166260  1.0
  O  O6  1  0.27953640  0.25970960  0.95166260  1.0
  O  O6  1  0.27953640  0.45970960  0.15166260  1.0
  O  O6  1  0.27953640  0.45970960  0.35166260  1.0
  O  O6  1  0.27953640  0.45970960  0.55166260  1.0
  O  O6  1  0.27953640  0.45970960  0.75166260  1.0
  O  O6  1  0.27953640  0.45970960  0.95166260  1.0
  O  O6  1  0.27953640  0.65970960  0.15166260  1.0
  O  O6  1  0.27953640  0.65970960  0.35166260  1.0
  O  O6  1  0.27953640  0.65970960  0.55166260  1.0
  O  O6  1  0.27953640  0.65970960  0.75166260  1.0
  O  O6  1  0.27953640  0.65970960  0.95166260  1.0
  O  O6  1  0.27953640  0.85970960  0.15166260  1.0
  O  O6  1  0.27953640  0.85970960  0.35166260  1.0
  O  O6  1  0.27953640  0.85970960  0.55166260  1.0
  O  O6  1  0.27953640  0.85970960  0.75166260  1.0
  O  O6  1  0.27953640  0.85970960  0.95166260  1.0
  O  O6  1  0.47953640  0.05970960  0.15166260  1.0
  O  O6  1  0.47953640  0.05970960  0.35166260  1.0
  O  O6  1  0.47953640  0.05970960  0.55166260  1.0
  O  O6  1  0.47953640  0.05970960  0.75166260  1.0
  O  O6  1  0.47953640  0.05970960  0.95166260  1.0
  O  O6  1  0.47953640  0.25970960  0.15166260  1.0
  O  O6  1  0.47953640  0.25970960  0.35166260  1.0
  O  O6  1  0.47953640  0.25970960  0.55166260  1.0
  O  O6  1  0.47953640  0.25970960  0.75166260  1.0
  O  O6  1  0.47953640  0.25970960  0.95166260  1.0
  O  O6  1  0.47953640  0.45970960  0.15166260  1.0
  O  O6  1  0.47953640  0.45970960  0.35166260  1.0
  O  O6  1  0.47953640  0.45970960  0.55166260  1.0
  O  O6  1  0.47953640  0.45970960  0.75166260  1.0
  O  O6  1  0.47953640  0.45970960  0.95166260  1.0
  O  O6  1  0.47953640  0.65970960  0.15166260  1.0
  O  O6  1  0.47953640  0.65970960  0.35166260  1.0
  O  O6  1  0.47953640  0.65970960  0.55166260  1.0
  O  O6  1  0.47953640  0.65970960  0.75166260  1.0
  O  O6  1  0.47953640  0.65970960  0.95166260  1.0
  O  O6  1  0.47953640  0.85970960  0.15166260  1.0
  O  O6  1  0.47953640  0.85970960  0.35166260  1.0
  O  O6  1  0.47953640  0.85970960  0.55166260  1.0
  O  O6  1  0.47953640  0.85970960  0.75166260  1.0
  O  O6  1  0.47953640  0.85970960  0.95166260  1.0
  O  O6  1  0.67953640  0.05970960  0.15166260  1.0
  O  O6  1  0.67953640  0.05970960  0.35166260  1.0
  O  O6  1  0.67953640  0.05970960  0.55166260  1.0
  O  O6  1  0.67953640  0.05970960  0.75166260  1.0
  O  O6  1  0.67953640  0.05970960  0.95166260  1.0
  O  O6  1  0.67953640  0.25970960  0.15166260  1.0
  O  O6  1  0.67953640  0.25970960  0.35166260  1.0
  O  O6  1  0.67953640  0.25970960  0.55166260  1.0
  O  O6  1  0.67953640  0.25970960  0.75166260  1.0
  O  O6  1  0.67953640  0.25970960  0.95166260  1.0
  O  O6  1  0.67953640  0.45970960  0.15166260  1.0
  O  O6  1  0.67953640  0.45970960  0.35166260  1.0
  O  O6  1  0.67953640  0.45970960  0.55166260  1.0
  O  O6  1  0.67953640  0.45970960  0.75166260  1.0
  O  O6  1  0.67953640  0.45970960  0.95166260  1.0
  O  O6  1  0.67953640  0.65970960  0.15166260  1.0
  O  O6  1  0.67953640  0.65970960  0.35166260  1.0
  O  O6  1  0.67953640  0.65970960  0.55166260  1.0
  O  O6  1  0.67953640  0.65970960  0.75166260  1.0
  O  O6  1  0.67953640  0.65970960  0.95166260  1.0
  O  O6  1  0.67953640  0.85970960  0.15166260  1.0
  O  O6  1  0.67953640  0.85970960  0.35166260  1.0
  O  O6  1  0.67953640  0.85970960  0.55166260  1.0
  O  O6  1  0.67953640  0.85970960  0.75166260  1.0
  O  O6  1  0.67953640  0.85970960  0.95166260  1.0
  O  O6  1  0.87953640  0.05970960  0.15166260  1.0
  O  O6  1  0.87953640  0.05970960  0.35166260  1.0
  O  O6  1  0.87953640  0.05970960  0.55166260  1.0
  O  O6  1  0.87953640  0.05970960  0.75166260  1.0
  O  O6  1  0.87953640  0.05970960  0.95166260  1.0
  O  O6  1  0.87953640  0.25970960  0.15166260  1.0
  O  O6  1  0.87953640  0.25970960  0.35166260  1.0
  O  O6  1  0.87953640  0.25970960  0.55166260  1.0
  O  O6  1  0.87953640  0.25970960  0.75166260  1.0
  O  O6  1  0.87953640  0.25970960  0.95166260  1.0
  O  O6  1  0.87953640  0.45970960  0.15166260  1.0
  O  O6  1  0.87953640  0.45970960  0.35166260  1.0
  O  O6  1  0.87953640  0.45970960  0.55166260  1.0
  O  O6  1  0.87953640  0.45970960  0.75166260  1.0
  O  O6  1  0.87953640  0.45970960  0.95166260  1.0
  O  O6  1  0.87953640  0.65970960  0.15166260  1.0
  O  O6  1  0.87953640  0.65970960  0.35166260  1.0
  O  O6  1  0.87953640  0.65970960  0.55166260  1.0
  O  O6  1  0.87953640  0.65970960  0.75166260  1.0
  O  O6  1  0.87953640  0.65970960  0.95166260  1.0
  O  O6  1  0.87953640  0.85970960  0.15166260  1.0
  O  O6  1  0.87953640  0.85970960  0.35166260  1.0
  O  O6  1  0.87953640  0.85970960  0.55166260  1.0
  O  O6  1  0.87953640  0.85970960  0.75166260  1.0
  O  O6  1  0.87953640  0.85970960  0.95166260  1.0
  O  O7  1  0.14029040  0.01982680  0.08499593  1.0
  O  O7  1  0.14029040  0.01982680  0.28499593  1.0
  O  O7  1  0.14029040  0.01982680  0.48499593  1.0
  O  O7  1  0.14029040  0.01982680  0.68499593  1.0
  O  O7  1  0.14029040  0.01982680  0.88499593  1.0
  O  O7  1  0.14029040  0.21982680  0.08499593  1.0
  O  O7  1  0.14029040  0.21982680  0.28499593  1.0
  O  O7  1  0.14029040  0.21982680  0.48499593  1.0
  O  O7  1  0.14029040  0.21982680  0.68499593  1.0
  O  O7  1  0.14029040  0.21982680  0.88499593  1.0
  O  O7  1  0.14029040  0.41982680  0.08499593  1.0
  O  O7  1  0.14029040  0.41982680  0.28499593  1.0
  O  O7  1  0.14029040  0.41982680  0.48499593  1.0
  O  O7  1  0.14029040  0.41982680  0.68499593  1.0
  O  O7  1  0.14029040  0.41982680  0.88499593  1.0
  O  O7  1  0.14029040  0.61982680  0.08499593  1.0
  O  O7  1  0.14029040  0.61982680  0.28499593  1.0
  O  O7  1  0.14029040  0.61982680  0.48499593  1.0
  O  O7  1  0.14029040  0.61982680  0.68499593  1.0
  O  O7  1  0.14029040  0.61982680  0.88499593  1.0
  O  O7  1  0.14029040  0.81982680  0.08499593  1.0
  O  O7  1  0.14029040  0.81982680  0.28499593  1.0
  O  O7  1  0.14029040  0.81982680  0.48499593  1.0
  O  O7  1  0.14029040  0.81982680  0.68499593  1.0
  O  O7  1  0.14029040  0.81982680  0.88499593  1.0
  O  O7  1  0.34029040  0.01982680  0.08499593  1.0
  O  O7  1  0.34029040  0.01982680  0.28499593  1.0
  O  O7  1  0.34029040  0.01982680  0.48499593  1.0
  O  O7  1  0.34029040  0.01982680  0.68499593  1.0
  O  O7  1  0.34029040  0.01982680  0.88499593  1.0
  O  O7  1  0.34029040  0.21982680  0.08499593  1.0
  O  O7  1  0.34029040  0.21982680  0.28499593  1.0
  O  O7  1  0.34029040  0.21982680  0.48499593  1.0
  O  O7  1  0.34029040  0.21982680  0.68499593  1.0
  O  O7  1  0.34029040  0.21982680  0.88499593  1.0
  O  O7  1  0.34029040  0.41982680  0.08499593  1.0
  O  O7  1  0.34029040  0.41982680  0.28499593  1.0
  O  O7  1  0.34029040  0.41982680  0.48499593  1.0
  O  O7  1  0.34029040  0.41982680  0.68499593  1.0
  O  O7  1  0.34029040  0.41982680  0.88499593  1.0
  O  O7  1  0.34029040  0.61982680  0.08499593  1.0
  O  O7  1  0.34029040  0.61982680  0.28499593  1.0
  O  O7  1  0.34029040  0.61982680  0.48499593  1.0
  O  O7  1  0.34029040  0.61982680  0.68499593  1.0
  O  O7  1  0.34029040  0.61982680  0.88499593  1.0
  O  O7  1  0.34029040  0.81982680  0.08499593  1.0
  O  O7  1  0.34029040  0.81982680  0.28499593  1.0
  O  O7  1  0.34029040  0.81982680  0.48499593  1.0
  O  O7  1  0.34029040  0.81982680  0.68499593  1.0
  O  O7  1  0.34029040  0.81982680  0.88499593  1.0
  O  O7  1  0.54029040  0.01982680  0.08499593  1.0
  O  O7  1  0.54029040  0.01982680  0.28499593  1.0
  O  O7  1  0.54029040  0.01982680  0.48499593  1.0
  O  O7  1  0.54029040  0.01982680  0.68499593  1.0
  O  O7  1  0.54029040  0.01982680  0.88499593  1.0
  O  O7  1  0.54029040  0.21982680  0.08499593  1.0
  O  O7  1  0.54029040  0.21982680  0.28499593  1.0
  O  O7  1  0.54029040  0.21982680  0.48499593  1.0
  O  O7  1  0.54029040  0.21982680  0.68499593  1.0
  O  O7  1  0.54029040  0.21982680  0.88499593  1.0
  O  O7  1  0.54029040  0.41982680  0.08499593  1.0
  O  O7  1  0.54029040  0.41982680  0.28499593  1.0
  O  O7  1  0.54029040  0.41982680  0.48499593  1.0
  O  O7  1  0.54029040  0.41982680  0.68499593  1.0
  O  O7  1  0.54029040  0.41982680  0.88499593  1.0
  O  O7  1  0.54029040  0.61982680  0.08499593  1.0
  O  O7  1  0.54029040  0.61982680  0.28499593  1.0
  O  O7  1  0.54029040  0.61982680  0.48499593  1.0
  O  O7  1  0.54029040  0.61982680  0.68499593  1.0
  O  O7  1  0.54029040  0.61982680  0.88499593  1.0
  O  O7  1  0.54029040  0.81982680  0.08499593  1.0
  O  O7  1  0.54029040  0.81982680  0.28499593  1.0
  O  O7  1  0.54029040  0.81982680  0.48499593  1.0
  O  O7  1  0.54029040  0.81982680  0.68499593  1.0
  O  O7  1  0.54029040  0.81982680  0.88499593  1.0
  O  O7  1  0.74029040  0.01982680  0.08499593  1.0
  O  O7  1  0.74029040  0.01982680  0.28499593  1.0
  O  O7  1  0.74029040  0.01982680  0.48499593  1.0
  O  O7  1  0.74029040  0.01982680  0.68499593  1.0
  O  O7  1  0.74029040  0.01982680  0.88499593  1.0
  O  O7  1  0.74029040  0.21982680  0.08499593  1.0
  O  O7  1  0.74029040  0.21982680  0.28499593  1.0
  O  O7  1  0.74029040  0.21982680  0.48499593  1.0
  O  O7  1  0.74029040  0.21982680  0.68499593  1.0
  O  O7  1  0.74029040  0.21982680  0.88499593  1.0
  O  O7  1  0.74029040  0.41982680  0.08499593  1.0
  O  O7  1  0.74029040  0.41982680  0.28499593  1.0
  O  O7  1  0.74029040  0.41982680  0.48499593  1.0
  O  O7  1  0.74029040  0.41982680  0.68499593  1.0
  O  O7  1  0.74029040  0.41982680  0.88499593  1.0
  O  O7  1  0.74029040  0.61982680  0.08499593  1.0
  O  O7  1  0.74029040  0.61982680  0.28499593  1.0
  O  O7  1  0.74029040  0.61982680  0.48499593  1.0
  O  O7  1  0.74029040  0.61982680  0.68499593  1.0
  O  O7  1  0.74029040  0.61982680  0.88499593  1.0
  O  O7  1  0.74029040  0.81982680  0.08499593  1.0
  O  O7  1  0.74029040  0.81982680  0.28499593  1.0
  O  O7  1  0.74029040  0.81982680  0.48499593  1.0
  O  O7  1  0.74029040  0.81982680  0.68499593  1.0
  O  O7  1  0.74029040  0.81982680  0.88499593  1.0
  O  O7  1  0.94029040  0.01982680  0.08499593  1.0
  O  O7  1  0.94029040  0.01982680  0.28499593  1.0
  O  O7  1  0.94029040  0.01982680  0.48499593  1.0
  O  O7  1  0.94029040  0.01982680  0.68499593  1.0
  O  O7  1  0.94029040  0.01982680  0.88499593  1.0
  O  O7  1  0.94029040  0.21982680  0.08499593  1.0
  O  O7  1  0.94029040  0.21982680  0.28499593  1.0
  O  O7  1  0.94029040  0.21982680  0.48499593  1.0
  O  O7  1  0.94029040  0.21982680  0.68499593  1.0
  O  O7  1  0.94029040  0.21982680  0.88499593  1.0
  O  O7  1  0.94029040  0.41982680  0.08499593  1.0
  O  O7  1  0.94029040  0.41982680  0.28499593  1.0
  O  O7  1  0.94029040  0.41982680  0.48499593  1.0
  O  O7  1  0.94029040  0.41982680  0.68499593  1.0
  O  O7  1  0.94029040  0.41982680  0.88499593  1.0
  O  O7  1  0.94029040  0.61982680  0.08499593  1.0
  O  O7  1  0.94029040  0.61982680  0.28499593  1.0
  O  O7  1  0.94029040  0.61982680  0.48499593  1.0
  O  O7  1  0.94029040  0.61982680  0.68499593  1.0
  O  O7  1  0.94029040  0.61982680  0.88499593  1.0
  O  O7  1  0.94029040  0.81982680  0.08499593  1.0
  O  O7  1  0.94029040  0.81982680  0.28499593  1.0
  O  O7  1  0.94029040  0.81982680  0.48499593  1.0
  O  O7  1  0.94029040  0.81982680  0.68499593  1.0
  O  O7  1  0.94029040  0.81982680  0.88499593  1.0
  O  O8  1  0.18017320  0.12046360  0.01832927  1.0
  O  O8  1  0.18017320  0.12046360  0.21832927  1.0
  O  O8  1  0.18017320  0.12046360  0.41832927  1.0
  O  O8  1  0.18017320  0.12046360  0.61832927  1.0
  O  O8  1  0.18017320  0.12046360  0.81832927  1.0
  O  O8  1  0.18017320  0.32046360  0.01832927  1.0
  O  O8  1  0.18017320  0.32046360  0.21832927  1.0
  O  O8  1  0.18017320  0.32046360  0.41832927  1.0
  O  O8  1  0.18017320  0.32046360  0.61832927  1.0
  O  O8  1  0.18017320  0.32046360  0.81832927  1.0
  O  O8  1  0.18017320  0.52046360  0.01832927  1.0
  O  O8  1  0.18017320  0.52046360  0.21832927  1.0
  O  O8  1  0.18017320  0.52046360  0.41832927  1.0
  O  O8  1  0.18017320  0.52046360  0.61832927  1.0
  O  O8  1  0.18017320  0.52046360  0.81832927  1.0
  O  O8  1  0.18017320  0.72046360  0.01832927  1.0
  O  O8  1  0.18017320  0.72046360  0.21832927  1.0
  O  O8  1  0.18017320  0.72046360  0.41832927  1.0
  O  O8  1  0.18017320  0.72046360  0.61832927  1.0
  O  O8  1  0.18017320  0.72046360  0.81832927  1.0
  O  O8  1  0.18017320  0.92046360  0.01832927  1.0
  O  O8  1  0.18017320  0.92046360  0.21832927  1.0
  O  O8  1  0.18017320  0.92046360  0.41832927  1.0
  O  O8  1  0.18017320  0.92046360  0.61832927  1.0
  O  O8  1  0.18017320  0.92046360  0.81832927  1.0
  O  O8  1  0.38017320  0.12046360  0.01832927  1.0
  O  O8  1  0.38017320  0.12046360  0.21832927  1.0
  O  O8  1  0.38017320  0.12046360  0.41832927  1.0
  O  O8  1  0.38017320  0.12046360  0.61832927  1.0
  O  O8  1  0.38017320  0.12046360  0.81832927  1.0
  O  O8  1  0.38017320  0.32046360  0.01832927  1.0
  O  O8  1  0.38017320  0.32046360  0.21832927  1.0
  O  O8  1  0.38017320  0.32046360  0.41832927  1.0
  O  O8  1  0.38017320  0.32046360  0.61832927  1.0
  O  O8  1  0.38017320  0.32046360  0.81832927  1.0
  O  O8  1  0.38017320  0.52046360  0.01832927  1.0
  O  O8  1  0.38017320  0.52046360  0.21832927  1.0
  O  O8  1  0.38017320  0.52046360  0.41832927  1.0
  O  O8  1  0.38017320  0.52046360  0.61832927  1.0
  O  O8  1  0.38017320  0.52046360  0.81832927  1.0
  O  O8  1  0.38017320  0.72046360  0.01832927  1.0
  O  O8  1  0.38017320  0.72046360  0.21832927  1.0
  O  O8  1  0.38017320  0.72046360  0.41832927  1.0
  O  O8  1  0.38017320  0.72046360  0.61832927  1.0
  O  O8  1  0.38017320  0.72046360  0.81832927  1.0
  O  O8  1  0.38017320  0.92046360  0.01832927  1.0
  O  O8  1  0.38017320  0.92046360  0.21832927  1.0
  O  O8  1  0.38017320  0.92046360  0.41832927  1.0
  O  O8  1  0.38017320  0.92046360  0.61832927  1.0
  O  O8  1  0.38017320  0.92046360  0.81832927  1.0
  O  O8  1  0.58017320  0.12046360  0.01832927  1.0
  O  O8  1  0.58017320  0.12046360  0.21832927  1.0
  O  O8  1  0.58017320  0.12046360  0.41832927  1.0
  O  O8  1  0.58017320  0.12046360  0.61832927  1.0
  O  O8  1  0.58017320  0.12046360  0.81832927  1.0
  O  O8  1  0.58017320  0.32046360  0.01832927  1.0
  O  O8  1  0.58017320  0.32046360  0.21832927  1.0
  O  O8  1  0.58017320  0.32046360  0.41832927  1.0
  O  O8  1  0.58017320  0.32046360  0.61832927  1.0
  O  O8  1  0.58017320  0.32046360  0.81832927  1.0
  O  O8  1  0.58017320  0.52046360  0.01832927  1.0
  O  O8  1  0.58017320  0.52046360  0.21832927  1.0
  O  O8  1  0.58017320  0.52046360  0.41832927  1.0
  O  O8  1  0.58017320  0.52046360  0.61832927  1.0
  O  O8  1  0.58017320  0.52046360  0.81832927  1.0
  O  O8  1  0.58017320  0.72046360  0.01832927  1.0
  O  O8  1  0.58017320  0.72046360  0.21832927  1.0
  O  O8  1  0.58017320  0.72046360  0.41832927  1.0
  O  O8  1  0.58017320  0.72046360  0.61832927  1.0
  O  O8  1  0.58017320  0.72046360  0.81832927  1.0
  O  O8  1  0.58017320  0.92046360  0.01832927  1.0
  O  O8  1  0.58017320  0.92046360  0.21832927  1.0
  O  O8  1  0.58017320  0.92046360  0.41832927  1.0
  O  O8  1  0.58017320  0.92046360  0.61832927  1.0
  O  O8  1  0.58017320  0.92046360  0.81832927  1.0
  O  O8  1  0.78017320  0.12046360  0.01832927  1.0
  O  O8  1  0.78017320  0.12046360  0.21832927  1.0
  O  O8  1  0.78017320  0.12046360  0.41832927  1.0
  O  O8  1  0.78017320  0.12046360  0.61832927  1.0
  O  O8  1  0.78017320  0.12046360  0.81832927  1.0
  O  O8  1  0.78017320  0.32046360  0.01832927  1.0
  O  O8  1  0.78017320  0.32046360  0.21832927  1.0
  O  O8  1  0.78017320  0.32046360  0.41832927  1.0
  O  O8  1  0.78017320  0.32046360  0.61832927  1.0
  O  O8  1  0.78017320  0.32046360  0.81832927  1.0
  O  O8  1  0.78017320  0.52046360  0.01832927  1.0
  O  O8  1  0.78017320  0.52046360  0.21832927  1.0
  O  O8  1  0.78017320  0.52046360  0.41832927  1.0
  O  O8  1  0.78017320  0.52046360  0.61832927  1.0
  O  O8  1  0.78017320  0.52046360  0.81832927  1.0
  O  O8  1  0.78017320  0.72046360  0.01832927  1.0
  O  O8  1  0.78017320  0.72046360  0.21832927  1.0
  O  O8  1  0.78017320  0.72046360  0.41832927  1.0
  O  O8  1  0.78017320  0.72046360  0.61832927  1.0
  O  O8  1  0.78017320  0.72046360  0.81832927  1.0
  O  O8  1  0.78017320  0.92046360  0.01832927  1.0
  O  O8  1  0.78017320  0.92046360  0.21832927  1.0
  O  O8  1  0.78017320  0.92046360  0.41832927  1.0
  O  O8  1  0.78017320  0.92046360  0.61832927  1.0
  O  O8  1  0.78017320  0.92046360  0.81832927  1.0
  O  O8  1  0.98017320  0.12046360  0.01832927  1.0
  O  O8  1  0.98017320  0.12046360  0.21832927  1.0
  O  O8  1  0.98017320  0.12046360  0.41832927  1.0
  O  O8  1  0.98017320  0.12046360  0.61832927  1.0
  O  O8  1  0.98017320  0.12046360  0.81832927  1.0
  O  O8  1  0.98017320  0.32046360  0.01832927  1.0
  O  O8  1  0.98017320  0.32046360  0.21832927  1.0
  O  O8  1  0.98017320  0.32046360  0.41832927  1.0
  O  O8  1  0.98017320  0.32046360  0.61832927  1.0
  O  O8  1  0.98017320  0.32046360  0.81832927  1.0
  O  O8  1  0.98017320  0.52046360  0.01832927  1.0
  O  O8  1  0.98017320  0.52046360  0.21832927  1.0
  O  O8  1  0.98017320  0.52046360  0.41832927  1.0
  O  O8  1  0.98017320  0.52046360  0.61832927  1.0
  O  O8  1  0.98017320  0.52046360  0.81832927  1.0
  O  O8  1  0.98017320  0.72046360  0.01832927  1.0
  O  O8  1  0.98017320  0.72046360  0.21832927  1.0
  O  O8  1  0.98017320  0.72046360  0.41832927  1.0
  O  O8  1  0.98017320  0.72046360  0.61832927  1.0
  O  O8  1  0.98017320  0.72046360  0.81832927  1.0
  O  O8  1  0.98017320  0.92046360  0.01832927  1.0
  O  O8  1  0.98017320  0.92046360  0.21832927  1.0
  O  O8  1  0.98017320  0.92046360  0.41832927  1.0
  O  O8  1  0.98017320  0.92046360  0.61832927  1.0
  O  O8  1  0.98017320  0.92046360  0.81832927  1.0
