# generated using pymatgen
data_P50S151
_symmetry_space_group_name_H-M   'P 1'
_cell_length_a   30.94419000
_cell_length_b   101.02300592
_cell_length_c   63.36566425
_cell_angle_alpha   107.48331704
_cell_angle_beta   103.55243778
_cell_angle_gamma   101.86041383
_symmetry_Int_Tables_number   1
_chemical_formula_structural   P50S151
_chemical_formula_sum   'P1200 S3624'
_cell_volume   175353.45294326
_cell_formula_units_Z   24
loop_
 _symmetry_equiv_pos_site_id
 _symmetry_equiv_pos_as_xyz
  1  'x, y, z'
loop_
 _atom_type_symbol
 _atom_type_oxidation_number
  P5+  5.0
  S2-  -2.0
loop_
 _atom_site_type_symbol
 _atom_site_label
 _atom_site_symmetry_multiplicity
 _atom_site_fract_x
 _atom_site_fract_y
 _atom_site_fract_z
 _atom_site_occupancy
  P5+  P14  1  0.05917143  0.90437991  0.18418233  1.0
  P5+  P14  1  0.48573143  0.86418570  0.32640546  1.0
  P5+  P14  1  0.10918771  0.08950913  0.32871181  1.0
  P5+  P14  1  0.02732692  0.91670797  0.43873928  1.0
  P5+  P14  1  0.04115078  0.23921312  0.83147944  1.0
  P5+  P14  1  0.06877490  0.41355693  0.93770990  1.0
  P5+  P14  1  0.33699094  0.02448979  0.26502184  1.0
  P5+  P14  1  0.81818118  0.79657757  0.60338861  1.0
  P5+  P14  1  0.65329279  0.29981317  0.92843537  1.0
  P5+  P14  1  0.88303993  0.05587311  0.06323657  1.0
  P5+  P14  1  0.19051719  0.25979379  0.26990404  1.0
  P5+  P14  1  0.04084893  0.16714028  0.28700985  1.0
  P5+  P14  1  0.13465625  0.32621312  0.42129762  1.0
  P5+  P14  1  0.23029665  0.22742867  0.51622592  1.0
  P5+  P14  1  0.12732184  0.41299314  0.85258859  1.0
  P5+  P14  1  0.82886302  0.48947162  0.17973220  1.0
  P5+  P14  1  0.34405927  0.60063784  0.32209109  1.0
  P5+  P14  1  0.92191208  0.32585792  0.46128275  1.0
  P5+  P14  1  0.98127757  0.43974617  0.48749515  1.0
  P5+  P14  1  0.96768051  0.28515531  0.98189935  1.0
  P5+  P14  1  0.38635295  0.64833854  0.88567712  1.0
  P5+  P14  1  0.19127557  0.49824468  0.14575780  1.0
  P5+  P14  1  0.95888863  0.75636620  0.39659920  1.0
  P5+  P14  1  0.99449602  0.68660717  0.77480518  1.0
  P5+  P14  1  0.09072098  0.56983418  0.89961536  1.0
  P5+  P14  1  0.96761704  0.59645125  0.16931874  1.0
  P5+  P14  1  0.17150523  0.70505632  0.22713669  1.0
  P5+  P14  1  0.19572201  0.89868261  0.27893903  1.0
  P5+  P14  1  0.01315972  0.86011426  0.76322089  1.0
  P5+  P14  1  0.81725910  0.90772489  0.97700961  1.0
  P5+  P14  1  0.19146561  0.92868611  0.24274381  1.0
  P5+  P14  1  0.16116272  0.64562318  0.49149638  1.0
  P5+  P14  1  0.24904218  0.99133688  0.43635586  1.0
  P5+  P14  1  0.91885531  0.73247358  0.44570816  1.0
  P5+  P14  1  0.95395404  0.65769330  0.93232802  1.0
  P5+  P14  1  0.15013879  0.13782100  0.06484652  1.0
  P5+  P14  1  0.20088679  0.08522016  0.39510721  1.0
  P5+  P14  1  0.14254927  0.84128915  0.62195893  1.0
  P5+  P14  1  0.03104089  0.50690688  0.07670527  1.0
  P5+  P14  1  0.83841334  0.05776008  0.87547094  1.0
  P5+  P14  1  0.23938625  0.15167439  0.15203415  1.0
  P5+  P14  1  0.18549022  0.90266624  0.18332942  1.0
  P5+  P14  1  0.08049781  0.11184347  0.45849880  1.0
  P5+  P14  1  0.36073852  0.12456550  0.59130094  1.0
  P5+  P14  1  0.31985721  0.05681832  0.84830356  1.0
  P5+  P14  1  0.15748082  0.25823848  0.25993670  1.0
  P5+  P14  1  0.25758704  0.32728200  0.15492693  1.0
  P5+  P14  1  0.13151667  0.34373172  0.24117106  1.0
  P5+  P14  1  0.13820368  0.03266009  0.49445651  1.0
  P5+  P14  1  0.15624805  0.05740967  0.82794150  1.0
  P5+  P14  1  0.26246128  0.33985522  0.02287306  1.0
  P5+  P14  1  0.26565080  0.13542679  0.51717762  1.0
  P5+  P14  1  0.10491153  0.54649316  0.30263704  1.0
  P5+  P14  1  0.39601865  0.15162917  0.76885848  1.0
  P5+  P14  1  0.55031450  0.52575763  0.08744229  1.0
  P5+  P14  1  0.55945798  0.21680523  0.86075119  1.0
  P5+  P14  1  0.18204791  0.50590492  0.11947604  1.0
  P5+  P14  1  0.12319891  0.60783420  0.50134043  1.0
  P5+  P14  1  0.46171326  0.26036661  0.87804473  1.0
  P5+  P14  1  0.40444565  0.54821960  0.07331205  1.0
  P5+  P14  1  0.47919233  0.34867100  0.23453467  1.0
  P5+  P14  1  0.14818670  0.71698981  0.21342231  1.0
  P5+  P14  1  0.19303440  0.41195755  0.28107126  1.0
  P5+  P14  1  0.51251187  0.57401839  0.51049315  1.0
  P5+  P14  1  0.16115831  0.45757162  0.85273958  1.0
  P5+  P14  1  0.34659178  0.47050335  0.85436889  1.0
  P5+  P14  1  0.34454867  0.00497844  0.92987257  1.0
  P5+  P14  1  0.22937767  0.58200825  0.41988073  1.0
  P5+  P14  1  0.45392436  0.51907648  0.79906671  1.0
  P5+  P14  1  0.49140216  0.51995753  0.06160553  1.0
  P5+  P14  1  0.26355123  0.75133696  0.31011796  1.0
  P5+  P14  1  0.39772786  0.04875623  0.08626289  1.0
  P5+  P14  1  0.47060918  0.77363544  0.49145410  1.0
  P5+  P14  1  0.09779263  0.69736733  0.87526860  1.0
  P5+  P14  1  0.43024212  0.91672295  0.05419265  1.0
  P5+  P14  1  0.23627258  0.97165573  0.26380703  1.0
  P5+  P14  1  0.31019401  0.82420768  0.48399668  1.0
  P5+  P14  1  0.19485771  0.11232635  0.42635646  1.0
  P5+  P14  1  0.24690167  0.87461887  0.43837241  1.0
  P5+  P14  1  0.52445272  0.83863517  0.79143501  1.0
  P5+  P14  1  0.88593275  0.44513692  0.25425135  1.0
  P5+  P14  1  0.53809781  0.24392212  0.14054536  1.0
  P5+  P14  1  0.39045668  0.13705531  0.58071250  1.0
  P5+  P14  1  0.65674845  0.18257152  0.82537935  1.0
  P5+  P14  1  0.64374697  0.21145361  0.85872440  1.0
  P5+  P14  1  0.32609349  0.01086583  0.02315090  1.0
  P5+  P14  1  0.32507573  0.24654141  0.18850754  1.0
  P5+  P14  1  0.50236978  0.11929955  0.54775409  1.0
  P5+  P14  1  0.62963205  0.97527960  0.54430139  1.0
  P5+  P14  1  0.53723677  0.43083101  0.84406904  1.0
  P5+  P14  1  0.65303968  0.19411196  0.15086917  1.0
  P5+  P14  1  0.51303971  0.18889248  0.49335624  1.0
  P5+  P14  1  0.35522489  0.35178585  0.47564888  1.0
  P5+  P14  1  0.55556910  0.55075489  0.90023989  1.0
  P5+  P14  1  0.21218913  0.20116861  0.87215591  1.0
  P5+  P14  1  0.68914387  0.46590131  0.07495122  1.0
  P5+  P14  1  0.48505230  0.31932410  0.34735099  1.0
  P5+  P14  1  0.58567892  0.54814371  0.67533577  1.0
  P5+  P14  1  0.07943516  0.04798237  0.96865916  1.0
  P5+  P14  1  0.57681080  0.23553446  0.62385093  1.0
  P5+  P14  1  0.66248187  0.46574761  0.23736377  1.0
  P5+  P14  1  0.37204084  0.73072143  0.14392444  1.0
  P5+  P14  1  0.63413273  0.73469118  0.27608565  1.0
  P5+  P14  1  0.31219445  0.68885805  0.34812503  1.0
  P5+  P14  1  0.41495269  0.63381583  0.86659184  1.0
  P5+  P14  1  0.26236872  0.80650361  0.04256442  1.0
  P5+  P14  1  0.52823286  0.79247282  0.44512385  1.0
  P5+  P14  1  0.37540776  0.67665970  0.30956965  1.0
  P5+  P14  1  0.24054363  0.03357729  0.71857406  1.0
  P5+  P14  1  0.45102034  0.79156610  0.68918545  1.0
  P5+  P14  1  0.38725685  0.81178458  0.30764191  1.0
  P5+  P14  1  0.37790263  0.78748536  0.28012394  1.0
  P5+  P14  1  0.41016493  0.89717454  0.26388109  1.0
  P5+  P14  1  0.42078672  0.91708720  0.78747779  1.0
  P5+  P14  1  0.31941292  0.63755539  0.73811465  1.0
  P5+  P14  1  0.63396202  0.89580774  0.06949762  1.0
  P5+  P14  1  0.52219413  0.04797747  0.26234121  1.0
  P5+  P14  1  0.46437112  0.13008258  0.90345548  1.0
  P5+  P14  1  0.29629359  0.11172058  0.68410207  1.0
  P5+  P14  1  0.40539298  0.10719922  0.77043917  1.0
  P5+  P14  1  0.62534420  0.00680042  0.28009696  1.0
  P5+  P14  1  0.46897834  0.05143378  0.10190965  1.0
  P5+  P14  1  0.37406218  0.25864740  0.56868086  1.0
  P5+  P14  1  0.65538493  0.16936544  0.58786313  1.0
  P5+  P14  1  0.43110513  0.27760346  0.68523150  1.0
  P5+  P14  1  0.57342036  0.21775490  0.10597127  1.0
  P5+  P14  1  0.56126975  0.08636994  0.26099301  1.0
  P5+  P14  1  0.86967005  0.28122508  0.46737675  1.0
  P5+  P14  1  0.71624231  0.19862755  0.60426911  1.0
  P5+  P14  1  0.73779605  0.25218540  0.76367164  1.0
  P5+  P14  1  0.55144678  0.54350309  0.18752457  1.0
  P5+  P14  1  0.49447899  0.49343222  0.08346576  1.0
  P5+  P14  1  0.63475522  0.13813862  0.30042182  1.0
  P5+  P14  1  0.81970924  0.46132564  0.80899763  1.0
  P5+  P14  1  0.48041144  0.22154675  0.97677052  1.0
  P5+  P14  1  0.63985741  0.31414755  0.93499686  1.0
  P5+  P14  1  0.93032186  0.53449880  0.04428953  1.0
  P5+  P14  1  0.78857109  0.48151978  0.53280456  1.0
  P5+  P14  1  0.69255787  0.45385937  0.68253556  1.0
  P5+  P14  1  0.03779268  0.45656887  0.57635515  1.0
  P5+  P14  1  0.83434749  0.54576451  0.28816675  1.0
  P5+  P14  1  0.57818133  0.57371660  0.45697164  1.0
  P5+  P14  1  0.53517118  0.66285793  0.33200296  1.0
  P5+  P14  1  0.70221377  0.69446031  0.47957761  1.0
  P5+  P14  1  0.63632111  0.54751628  0.67324775  1.0
  P5+  P14  1  0.58539874  0.78448917  0.93117298  1.0
  P5+  P14  1  0.71845710  0.50087568  0.08964267  1.0
  P5+  P14  1  0.56264352  0.84092336  0.31666266  1.0
  P5+  P14  1  0.55935984  0.80621714  0.76202626  1.0
  P5+  P14  1  0.43142603  0.65259267  0.86008220  1.0
  P5+  P14  1  0.80080323  0.79934534  0.98126558  1.0
  P5+  P14  1  0.42263473  0.91335556  0.02943857  1.0
  P5+  P14  1  0.79062060  0.64105790  0.59104813  1.0
  P5+  P14  1  0.72833168  0.87557502  0.46347634  1.0
  P5+  P14  1  0.78010653  0.91364978  0.96331433  1.0
  P5+  P14  1  0.66463331  0.85332154  0.96496409  1.0
  P5+  P14  1  0.82156388  0.89773956  0.29720709  1.0
  P5+  P14  1  0.56317730  0.91586999  0.42815854  1.0
  P5+  P14  1  0.55924734  0.98550094  0.75252435  1.0
  P5+  P14  1  0.80769777  0.04606203  0.77273113  1.0
  P5+  P14  1  0.94548345  0.21670217  0.03119664  1.0
  P5+  P14  1  0.76792001  0.12645017  0.07134072  1.0
  P5+  P14  1  0.96115473  0.81265117  0.38981426  1.0
  P5+  P14  1  0.96486099  0.13572589  0.61124421  1.0
  P5+  P14  1  0.14466952  0.03066276  0.82196823  1.0
  P5+  P14  1  0.68139717  0.30171848  0.22165559  1.0
  P5+  P14  1  0.92509142  0.97511285  0.36900490  1.0
  P5+  P14  1  0.02619562  0.14185189  0.46468192  1.0
  P5+  P14  1  0.92588117  0.02348590  0.81725150  1.0
  P5+  P14  1  0.13358364  0.34126427  0.78478318  1.0
  P5+  P14  1  0.72227971  0.21759652  0.09742835  1.0
  P5+  P14  1  0.00481256  0.24212245  0.27092719  1.0
  P5+  P14  1  0.78864199  0.09994508  0.54418632  1.0
  P5+  P14  1  0.15711747  0.21378691  0.84923092  1.0
  P5+  P14  1  0.07220214  0.52815643  0.71702865  1.0
  P5+  P14  1  0.92673794  0.66606468  0.86802876  1.0
  P5+  P14  1  0.94796462  0.44065614  0.43686518  1.0
  P5+  P14  1  0.73097933  0.64751417  0.56290652  1.0
  P5+  P14  1  0.98635609  0.24945583  0.58440323  1.0
  P5+  P14  1  0.02048604  0.50655538  0.70854757  1.0
  P5+  P14  1  0.92219162  0.40660083  0.12869992  1.0
  P5+  P14  1  0.89506719  0.57763973  0.25220057  1.0
  P5+  P14  1  0.67805826  0.45170156  0.39158958  1.0
  P5+  P14  1  0.85600749  0.51187797  0.60134485  1.0
  P5+  P14  1  0.05131721  0.56216420  0.01203428  1.0
  P5+  P14  1  0.12702610  0.87003299  0.17290651  1.0
  P5+  P14  1  0.95540416  0.46326190  0.42610557  1.0
  P5+  P14  1  0.99179351  0.59742721  0.67719941  1.0
  P5+  P14  1  0.70981135  0.64990993  0.64671341  1.0
  P5+  P14  1  0.58800205  0.83748601  0.52788478  1.0
  P5+  P14  1  0.72520877  0.87080715  0.07476240  1.0
  P5+  P14  1  0.06656159  0.97987709  0.44220506  1.0
  P5+  P14  1  0.99307458  0.00426003  0.44458487  1.0
  P5+  P14  1  0.84723246  0.74244281  0.50108697  1.0
  P5+  P14  1  0.64706697  0.73786235  0.95013250  1.0
  P5+  P14  1  0.67364645  0.76439110  0.24403731  1.0
  P5+  P14  1  0.11582777  0.74549046  0.13598842  1.0
  P5+  P14  1  0.98281946  0.78028023  0.43211198  1.0
  P5+  P14  1  0.08885811  0.82232882  0.37764302  1.0
  P5+  P14  1  0.95634851  0.98542698  0.00154194  1.0
  P5+  P15  1  0.40120754  0.18963256  0.00125121  1.0
  P5+  P15  1  0.12917845  0.04095095  0.25210567  1.0
  P5+  P15  1  0.19242404  0.03156788  0.36138716  1.0
  P5+  P15  1  0.00954002  0.02859324  0.45094887  1.0
  P5+  P15  1  0.27076516  0.25549355  0.89312715  1.0
  P5+  P15  1  0.26844307  0.35426676  0.00239854  1.0
  P5+  P15  1  0.94828501  0.14211397  0.57747847  1.0
  P5+  P15  1  0.00797362  0.41973816  0.56644414  1.0
  P5+  P15  1  0.11052085  0.07918498  0.78292439  1.0
  P5+  P15  1  0.96174459  0.22455296  0.78930972  1.0
  P5+  P15  1  0.42971944  0.36406744  0.18194158  1.0
  P5+  P15  1  0.35003150  0.48178157  0.40023942  1.0
  P5+  P15  1  0.22949452  0.22321623  0.34822565  1.0
  P5+  P15  1  0.98089904  0.18471009  0.62405508  1.0
  P5+  P15  1  0.95189982  0.51673646  0.08092999  1.0
  P5+  P15  1  0.89685122  0.29942183  0.15700365  1.0
  P5+  P15  1  0.02682472  0.29857993  0.45829429  1.0
  P5+  P15  1  0.20278729  0.29315701  0.59833803  1.0
  P5+  P15  1  0.83634475  0.28873063  0.56857621  1.0
  P5+  P15  1  0.21290915  0.30026267  0.05963220  1.0
  P5+  P15  1  0.28519502  0.39922470  0.10445736  1.0
  P5+  P15  1  0.04075547  0.38932912  0.14129731  1.0
  P5+  P15  1  0.05684632  0.52326154  0.65789207  1.0
  P5+  P15  1  0.16330145  0.75301553  0.67545333  1.0
  P5+  P15  1  0.35723812  0.67516546  0.94594731  1.0
  P5+  P15  1  0.19272027  0.72262535  0.17730629  1.0
  P5+  P15  1  0.27029642  0.75009547  0.28324294  1.0
  P5+  P15  1  0.05280480  0.74092835  0.50768437  1.0
  P5+  P15  1  0.98516361  0.80005316  0.79964174  1.0
  P5+  P15  1  0.13056189  0.89469887  0.92697984  1.0
  P5+  P15  1  0.07158999  0.64449892  0.25701836  1.0
  P5+  P15  1  0.12984479  0.74926125  0.19623896  1.0
  P5+  P15  1  0.31270996  0.65830010  0.42436331  1.0
  P5+  P15  1  0.37085118  0.80732982  0.71692515  1.0
  P5+  P15  1  0.09351688  0.76504722  0.76922407  1.0
  P5+  P15  1  0.08957327  0.85087002  0.92077354  1.0
  P5+  P15  1  0.25061375  0.91871431  0.29890216  1.0
  P5+  P15  1  0.04657642  0.06492870  0.42822111  1.0
  P5+  P15  1  0.15574063  0.79348894  0.66503473  1.0
  P5+  P15  1  0.09660747  0.14490665  0.95521364  1.0
  P5+  P15  1  0.61605820  0.17585052  0.08952281  1.0
  P5+  P15  1  0.24008746  0.19330540  0.46094196  1.0
  P5+  P15  1  0.21520391  0.96489288  0.30342738  1.0
  P5+  P15  1  0.44849674  0.32980176  0.80476024  1.0
  P5+  P15  1  0.49261470  0.01197055  0.79753038  1.0
  P5+  P15  1  0.25670937  0.32241669  0.03608712  1.0
  P5+  P15  1  0.49194143  0.30222289  0.12319297  1.0
  P5+  P15  1  0.21333889  0.05539064  0.35128849  1.0
  P5+  P15  1  0.47168849  0.16727186  0.49663380  1.0
  P5+  P15  1  0.48411506  0.29524103  0.81698188  1.0
  P5+  P15  1  0.22858749  0.21633721  0.29613189  1.0
  P5+  P15  1  0.41244149  0.33204679  0.18752137  1.0
  P5+  P15  1  0.51412279  0.51536321  0.47007087  1.0
  P5+  P15  1  0.33372325  0.34231952  0.93907522  1.0
  P5+  P15  1  0.57039442  0.16571740  0.83350770  1.0
  P5+  P15  1  0.56492097  0.42262593  0.43719211  1.0
  P5+  P15  1  0.46530694  0.42850730  0.30731772  1.0
  P5+  P15  1  0.56239421  0.46820032  0.32819483  1.0
  P5+  P15  1  0.44700782  0.41981253  0.90556962  1.0
  P5+  P15  1  0.28125165  0.29297865  0.89291042  1.0
  P5+  P15  1  0.52632696  0.44000754  0.89901149  1.0
  P5+  P15  1  0.40431438  0.59970127  0.20009457  1.0
  P5+  P15  1  0.50684452  0.63193022  0.33849309  1.0
  P5+  P15  1  0.42448967  0.47051300  0.62132074  1.0
  P5+  P15  1  0.12490181  0.36366099  0.96280043  1.0
  P5+  P15  1  0.49879476  0.52564207  0.01436294  1.0
  P5+  P15  1  0.58616372  0.90957195  0.13148355  1.0
  P5+  P15  1  0.27275171  0.93467832  0.52310418  1.0
  P5+  P15  1  0.28104498  0.73911947  0.70870840  1.0
  P5+  P15  1  0.30683818  0.60169588  0.01893823  1.0
  P5+  P15  1  0.09810571  0.74667738  0.94898435  1.0
  P5+  P15  1  0.57077743  0.84880425  0.49500211  1.0
  P5+  P15  1  0.29897015  0.98284923  0.19344975  1.0
  P5+  P15  1  0.26009930  0.68356511  0.95295370  1.0
  P5+  P15  1  0.47765571  0.75618151  0.74446608  1.0
  P5+  P15  1  0.55513124  0.94098641  0.17447132  1.0
  P5+  P15  1  0.54075505  0.95931812  0.23807972  1.0
  P5+  P15  1  0.43364549  0.82329199  0.65671744  1.0
  P5+  P15  1  0.40059044  0.01655199  0.56920554  1.0
  P5+  P15  1  0.45204474  0.00973928  0.84680699  1.0
  P5+  P15  1  0.59447274  0.16970140  0.25842061  1.0
  P5+  P15  1  0.60940312  0.28089841  0.21486692  1.0
  P5+  P15  1  0.57821176  0.88629368  0.67870504  1.0
  P5+  P15  1  0.89296541  0.88767258  0.97796516  1.0
  P5+  P15  1  0.52496765  0.26377505  0.05369088  1.0
  P5+  P15  1  0.67820296  0.27817912  0.00558914  1.0
  P5+  P15  1  0.78683933  0.39950961  0.29438028  1.0
  P5+  P15  1  0.47464558  0.24946065  0.58489568  1.0
  P5+  P15  1  0.76706110  0.33223206  0.72173593  1.0
  P5+  P15  1  0.75624850  0.08459914  0.86736672  1.0
  P5+  P15  1  0.78701288  0.32844226  0.28718602  1.0
  P5+  P15  1  0.54802734  0.39755971  0.31025135  1.0
  P5+  P15  1  0.63122992  0.19275382  0.56207096  1.0
  P5+  P15  1  0.50551760  0.27015779  0.69865263  1.0
  P5+  P15  1  0.54985621  0.14007683  0.92941143  1.0
  P5+  P15  1  0.55060421  0.71046273  0.97717726  1.0
  P5+  P15  1  0.73438720  0.74448439  0.51902837  1.0
  P5+  P15  1  0.79887875  0.40980497  0.73325725  1.0
  P5+  P15  1  0.55465743  0.23496112  0.76853636  1.0
  P5+  P15  1  0.38529488  0.38785977  0.01548412  1.0
  P5+  P15  1  0.61019566  0.45204675  0.28012620  1.0
  P5+  P15  1  0.58014681  0.52362686  0.33723342  1.0
  P5+  P15  1  0.51199384  0.51670637  0.58861783  1.0
  P5+  P15  1  0.56623231  0.52834347  0.53623355  1.0
  P5+  P15  1  0.49490292  0.48620158  0.04412745  1.0
  P5+  P15  1  0.51118159  0.75761427  0.21920608  1.0
  P5+  P15  1  0.53460161  0.80747360  0.31251110  1.0
  P5+  P15  1  0.49136584  0.94927217  0.59236790  1.0
  P5+  P15  1  0.42674478  0.77444962  0.71387840  1.0
  P5+  P15  1  0.62271578  0.80304134  0.92491494  1.0
  P5+  P15  1  0.43165877  0.73561956  0.15467230  1.0
  P5+  P15  1  0.37701231  0.99209659  0.26718431  1.0
  P5+  P15  1  0.79745527  0.70612059  0.59662726  1.0
  P5+  P15  1  0.57849919  0.78231881  0.73257397  1.0
  P5+  P15  1  0.51451442  0.72278900  0.71398612  1.0
  P5+  P15  1  0.77987265  0.02267509  0.07711441  1.0
  P5+  P15  1  0.62731085  0.01445936  0.48253029  1.0
  P5+  P15  1  0.45078290  0.07852739  0.55179813  1.0
  P5+  P15  1  0.53754736  0.82785282  0.49748578  1.0
  P5+  P15  1  0.56389653  0.19862526  0.78555897  1.0
  P5+  P15  1  0.92100408  0.25807701  0.00215066  1.0
  P5+  P15  1  0.54741246  0.21173681  0.34857137  1.0
  P5+  P15  1  0.60160806  0.26027745  0.31888762  1.0
  P5+  P15  1  0.85705964  0.18733052  0.78651406  1.0
  P5+  P15  1  0.87474729  0.13716812  0.68149610  1.0
  P5+  P15  1  0.82670335  0.34198787  0.88878052  1.0
  P5+  P15  1  0.88055251  0.30230544  0.12051759  1.0
  P5+  P15  1  0.70865172  0.19919478  0.54548281  1.0
  P5+  P15  1  0.56830928  0.39635689  0.86749386  1.0
  P5+  P15  1  0.76400046  0.11015572  0.72255065  1.0
  P5+  P15  1  0.45559196  0.39439616  0.20693416  1.0
  P5+  P15  1  0.99308601  0.25380011  0.16616787  1.0
  P5+  P15  1  0.61742526  0.14391588  0.31705617  1.0
  P5+  P15  1  0.74869783  0.28577187  0.72896085  1.0
  P5+  P15  1  0.56532052  0.46379003  0.07952517  1.0
  P5+  P15  1  0.60921863  0.46745252  0.28045485  1.0
  P5+  P15  1  0.90865841  0.56920757  0.21347684  1.0
  P5+  P15  1  0.61882260  0.69053320  0.62393278  1.0
  P5+  P15  1  0.87030440  0.28768316  0.72553107  1.0
  P5+  P15  1  0.99363387  0.57795333  0.78508646  1.0
  P5+  P15  1  0.88854616  0.39903259  0.00985866  1.0
  P5+  P15  1  0.61402864  0.86844650  0.07366037  1.0
  P5+  P15  1  0.72209348  0.67745603  0.32730237  1.0
  P5+  P15  1  0.83147151  0.42195014  0.76377272  1.0
  P5+  P15  1  0.91645548  0.75428383  0.02054096  1.0
  P5+  P15  1  0.87861370  0.86997755  0.29938786  1.0
  P5+  P15  1  0.56844500  0.91011442  0.41336628  1.0
  P5+  P15  1  0.65863355  0.82536861  0.56602084  1.0
  P5+  P15  1  0.90371464  0.80466916  0.87136613  1.0
  P5+  P15  1  0.79308998  0.54050248  0.76550437  1.0
  P5+  P15  1  0.96828675  0.68722894  0.19013269  1.0
  P5+  P15  1  0.88850646  0.65821311  0.43454091  1.0
  P5+  P15  1  0.67254483  0.98189205  0.44551133  1.0
  P5+  P15  1  0.68745888  0.81870098  0.60243667  1.0
  P5+  P15  1  0.93531087  0.71598331  0.79719934  1.0
  P5+  P15  1  0.65323215  0.84854794  0.93107231  1.0
  P5+  P15  1  0.91346705  0.78305329  0.37665824  1.0
  P5+  P15  1  0.77894154  0.15842943  0.89643942  1.0
  P5+  P15  1  0.81916464  0.94417106  0.72215261  1.0
  P5+  P15  1  0.93944256  0.76179362  0.74444130  1.0
  P5+  P15  1  0.85818442  0.19447009  0.93659484  1.0
  P5+  P15  1  0.81363149  0.01293033  0.38368623  1.0
  P5+  P15  1  0.96751074  0.02481076  0.46979759  1.0
  P5+  P15  1  0.88026089  0.25866700  0.79222150  1.0
  P5+  P15  1  0.10932881  0.92930446  0.91145942  1.0
  P5+  P15  1  0.97626583  0.41322796  0.13760532  1.0
  P5+  P15  1  0.92392315  0.03652185  0.50882158  1.0
  P5+  P15  1  0.99721438  0.16732411  0.58637124  1.0
  P5+  P15  1  0.62919779  0.97429342  0.46746482  1.0
  P5+  P15  1  0.18336639  0.99997999  0.80000507  1.0
  P5+  P15  1  0.06600360  0.18789795  0.97742850  1.0
  P5+  P15  1  0.73046833  0.28205802  0.13405960  1.0
  P5+  P15  1  0.02596418  0.48960294  0.08850905  1.0
  P5+  P15  1  0.24380944  0.14750350  0.67638502  1.0
  P5+  P15  1  0.16761598  0.48700543  0.94499533  1.0
  P5+  P15  1  0.04929550  0.35970722  0.30107793  1.0
  P5+  P15  1  0.18690871  0.22084556  0.25093446  1.0
  P5+  P15  1  0.96565219  0.29370742  0.40590625  1.0
  P5+  P15  1  0.84877608  0.36984400  0.70884292  1.0
  P5+  P15  1  0.99446018  0.57483795  0.72675916  1.0
  P5+  P15  1  0.00420362  0.41492441  0.97244939  1.0
  P5+  P15  1  0.82160232  0.43739600  0.28906807  1.0
  P5+  P15  1  0.94520049  0.47189498  0.59756456  1.0
  P5+  P15  1  0.16093785  0.45886140  0.81379616  1.0
  P5+  P15  1  0.17459372  0.47067154  0.92757000  1.0
  P5+  P15  1  0.08240636  0.83656164  0.35361711  1.0
  P5+  P15  1  0.93661309  0.88104344  0.01233454  1.0
  P5+  P15  1  0.93871175  0.93967137  0.39468328  1.0
  P5+  P15  1  0.04255067  0.80864994  0.84576286  1.0
  P5+  P15  1  0.92539312  0.92646085  0.99420994  1.0
  P5+  P15  1  0.77541559  0.05072934  0.93065883  1.0
  P5+  P15  1  0.06817011  0.64803573  0.52829807  1.0
  P5+  P15  1  0.06134778  0.74200582  0.78669929  1.0
  P5+  P15  1  0.19960219  0.79476514  0.03035785  1.0
  P5+  P15  1  0.97959288  0.89992075  0.02681031  1.0
  P5+  P15  1  0.05599416  0.02457167  0.97288050  1.0
  P5+  P15  1  0.02076558  0.12690353  0.29008841  1.0
  P5+  P15  1  0.13463547  0.90552282  0.34645129  1.0
  P5+  P15  1  0.07693559  0.04497098  0.77901857  1.0
  P5+  P15  1  0.10203287  0.13909057  0.77237490  1.0
  P5+  P16  1  0.34008185  0.04699197  0.29523878  1.0
  P5+  P16  1  0.19421276  0.71048185  0.28538523  1.0
  P5+  P16  1  0.96621367  0.15709398  0.47992475  1.0
  P5+  P16  1  0.37166162  0.93470092  0.99240474  1.0
  P5+  P16  1  0.23498744  0.98972244  0.17053221  1.0
  P5+  P16  1  0.13323697  0.10515913  0.26864002  1.0
  P5+  P16  1  0.34278128  0.32777517  0.46595975  1.0
  P5+  P16  1  0.15512934  0.27781650  0.56513596  1.0
  P5+  P16  1  0.05038941  0.34581636  0.99446601  1.0
  P5+  P16  1  0.01956294  0.22512309  0.11532600  1.0
  P5+  P16  1  0.34413321  0.36008130  0.05257439  1.0
  P5+  P16  1  0.18940056  0.34145516  0.25595922  1.0
  P5+  P16  1  0.06308757  0.34575947  0.35961847  1.0
  P5+  P16  1  0.00799694  0.45869669  0.57858122  1.0
  P5+  P16  1  0.03034700  0.46688158  0.95522012  1.0
  P5+  P16  1  0.16944863  0.39517105  0.19133587  1.0
  P5+  P16  1  0.12470228  0.40330662  0.40467002  1.0
  P5+  P16  1  0.12373052  0.77067066  0.70166727  1.0
  P5+  P16  1  0.09079352  0.61623385  0.56015551  1.0
  P5+  P16  1  0.11583816  0.48277344  0.91359424  1.0
  P5+  P16  1  0.26511177  0.63744834  0.04601153  1.0
  P5+  P16  1  0.31889979  0.54938615  0.49973436  1.0
  P5+  P16  1  0.97083839  0.72534417  0.72824317  1.0
  P5+  P16  1  0.10643778  0.70888203  0.75415935  1.0
  P5+  P16  1  0.14545389  0.15939129  0.07504046  1.0
  P5+  P16  1  0.35317663  0.56106147  0.12920287  1.0
  P5+  P16  1  0.29904173  0.51929541  0.23632040  1.0
  P5+  P16  1  0.24970266  0.73446732  0.35829745  1.0
  P5+  P16  1  0.96378658  0.55208776  0.99765988  1.0
  P5+  P16  1  0.29562766  0.64004648  0.13463064  1.0
  P5+  P16  1  0.22251435  0.84410373  0.36405007  1.0
  P5+  P16  1  0.09463991  0.90336724  0.36860225  1.0
  P5+  P16  1  0.35167805  0.80800289  0.36431134  1.0
  P5+  P16  1  0.94151472  0.58647150  0.76240611  1.0
  P5+  P16  1  0.30804737  0.96949094  0.02528760  1.0
  P5+  P16  1  0.03982391  0.03228007  0.97776020  1.0
  P5+  P16  1  0.90524502  0.69372833  0.29719281  1.0
  P5+  P16  1  0.00690685  0.01249313  0.52897065  1.0
  P5+  P16  1  0.18206964  0.02169803  0.55759433  1.0
  P5+  P16  1  0.34881445  0.76283067  0.12705954  1.0
  P5+  P16  1  0.53669857  0.14646307  0.27521178  1.0
  P5+  P16  1  0.29793831  0.98904103  0.51984771  1.0
  P5+  P16  1  0.59918138  0.20475350  0.57665031  1.0
  P5+  P16  1  0.56462016  0.13890998  0.02684506  1.0
  P5+  P16  1  0.60406809  0.21507811  0.96655622  1.0
  P5+  P16  1  0.35835875  0.15753643  0.03762270  1.0
  P5+  P16  1  0.06558448  0.13316565  0.51636186  1.0
  P5+  P16  1  0.55340841  0.95398400  0.45473669  1.0
  P5+  P16  1  0.37607526  0.15952656  0.96788501  1.0
  P5+  P16  1  0.36249428  0.98848449  0.86326789  1.0
  P5+  P16  1  0.49490656  0.24176307  0.13548310  1.0
  P5+  P16  1  0.38828720  0.27644415  0.26584336  1.0
  P5+  P16  1  0.23254480  0.13210380  0.43617597  1.0
  P5+  P16  1  0.21575446  0.48106927  0.70913736  1.0
  P5+  P16  1  0.17904460  0.42951374  0.83427201  1.0
  P5+  P16  1  0.21043964  0.40568594  0.21469552  1.0
  P5+  P16  1  0.41099324  0.41370675  0.17731681  1.0
  P5+  P16  1  0.41744737  0.43081186  0.32474178  1.0
  P5+  P16  1  0.57514893  0.44462999  0.46476526  1.0
  P5+  P16  1  0.21379374  0.47209531  0.09773809  1.0
  P5+  P16  1  0.48259007  0.59057623  0.22786946  1.0
  P5+  P16  1  0.43676693  0.61894226  0.55988585  1.0
  P5+  P16  1  0.14550713  0.69125924  0.60331894  1.0
  P5+  P16  1  0.33593713  0.51297666  0.78383600  1.0
  P5+  P16  1  0.16341545  0.70956535  0.10316938  1.0
  P5+  P16  1  0.53268550  0.86301862  0.91492814  1.0
  P5+  P16  1  0.57142756  0.52529964  0.26152859  1.0
  P5+  P16  1  0.97262538  0.74814427  0.29635653  1.0
  P5+  P16  1  0.45765017  0.82902462  0.78191238  1.0
  P5+  P16  1  0.39252506  0.63514869  0.87601254  1.0
  P5+  P16  1  0.50372177  0.69298034  0.31226851  1.0
  P5+  P16  1  0.52104787  0.94988288  0.26411579  1.0
  P5+  P16  1  0.50197665  0.79177135  0.57298245  1.0
  P5+  P16  1  0.36844194  0.81519802  0.86608438  1.0
  P5+  P16  1  0.35858855  0.63238396  0.14803335  1.0
  P5+  P16  1  0.09722043  0.68629222  0.27780966  1.0
  P5+  P16  1  0.40705632  0.89518276  0.39875647  1.0
  P5+  P16  1  0.41605725  0.08465356  0.72947388  1.0
  P5+  P16  1  0.32969750  0.00122479  0.72075514  1.0
  P5+  P16  1  0.26259159  0.03322133  0.89145068  1.0
  P5+  P16  1  0.74529331  0.30556106  0.26415375  1.0
  P5+  P16  1  0.71673744  0.96859491  0.45291097  1.0
  P5+  P16  1  0.77564706  0.09335154  0.72151977  1.0
  P5+  P16  1  0.47264178  0.87231982  0.78184959  1.0
  P5+  P16  1  0.33601372  0.67780793  0.76638633  1.0
  P5+  P16  1  0.74751213  0.99180503  0.02352545  1.0
  P5+  P16  1  0.66246694  0.01026538  0.42108475  1.0
  P5+  P16  1  0.58694201  0.04874002  0.72275609  1.0
  P5+  P16  1  0.63684737  0.15760578  0.77912147  1.0
  P5+  P16  1  0.60641696  0.01293820  0.92984662  1.0
  P5+  P16  1  0.65948785  0.45034379  0.11399702  1.0
  P5+  P16  1  0.50898230  0.42274530  0.31862887  1.0
  P5+  P16  1  0.39399174  0.38796454  0.71727050  1.0
  P5+  P16  1  0.70728366  0.18800471  0.83824090  1.0
  P5+  P16  1  0.79589764  0.47047399  0.76281849  1.0
  P5+  P16  1  0.55428169  0.19539472  0.98423119  1.0
  P5+  P16  1  0.57673267  0.48798925  0.35616682  1.0
  P5+  P16  1  0.39506041  0.59562316  0.75041475  1.0
  P5+  P16  1  0.48854551  0.19792351  0.95980887  1.0
  P5+  P16  1  0.39975868  0.54399369  0.00091236  1.0
  P5+  P16  1  0.58217938  0.36024987  0.29812803  1.0
  P5+  P16  1  0.58987309  0.53716053  0.60417148  1.0
  P5+  P16  1  0.38435374  0.36495717  0.48488120  1.0
  P5+  P16  1  0.55748378  0.71276370  0.93601101  1.0
  P5+  P16  1  0.49574518  0.71834506  0.14629942  1.0
  P5+  P16  1  0.43586124  0.44627949  0.31726283  1.0
  P5+  P16  1  0.55774437  0.48603744  0.08992934  1.0
  P5+  P16  1  0.71504800  0.65768391  0.88511853  1.0
  P5+  P16  1  0.64239070  0.60322909  0.73734949  1.0
  P5+  P16  1  0.75672928  0.82201454  0.20490207  1.0
  P5+  P16  1  0.49753235  0.89057900  0.31589569  1.0
  P5+  P16  1  0.39134102  0.64852224  0.34415342  1.0
  P5+  P16  1  0.57464467  0.78878507  0.74936219  1.0
  P5+  P16  1  0.45370948  0.65365424  0.60233131  1.0
  P5+  P16  1  0.44730237  0.72102555  0.95896778  1.0
  P5+  P16  1  0.71834488  0.79963130  0.27854075  1.0
  P5+  P16  1  0.69690029  0.85943858  0.49455358  1.0
  P5+  P16  1  0.59997019  0.86547085  0.48579387  1.0
  P5+  P16  1  0.75752714  0.03235904  0.76974308  1.0
  P5+  P16  1  0.56149337  0.10043349  0.94073008  1.0
  P5+  P16  1  0.95412585  0.10640904  0.27374537  1.0
  P5+  P16  1  0.58882811  0.19849354  0.58558926  1.0
  P5+  P16  1  0.91881854  0.14605889  0.61977335  1.0
  P5+  P16  1  0.79418829  0.10949597  0.89853975  1.0
  P5+  P16  1  0.96790841  0.20262945  0.93294773  1.0
  P5+  P16  1  0.60373110  0.32169581  0.04792424  1.0
  P5+  P16  1  0.96754065  0.07471417  0.48119752  1.0
  P5+  P16  1  0.82285162  0.02186788  0.74804891  1.0
  P5+  P16  1  0.96335708  0.06392076  0.59271183  1.0
  P5+  P16  1  0.99073992  0.34782146  0.10201660  1.0
  P5+  P16  1  0.77294010  0.27906365  0.17894716  1.0
  P5+  P16  1  0.61748463  0.18304678  0.30125361  1.0
  P5+  P16  1  0.78789388  0.25471918  0.53362048  1.0
  P5+  P16  1  0.62832858  0.38813833  0.76382939  1.0
  P5+  P16  1  0.65819558  0.45658822  0.96048020  1.0
  P5+  P16  1  0.68741365  0.43015876  0.36658873  1.0
  P5+  P16  1  0.80507553  0.38366443  0.69964098  1.0
  P5+  P16  1  0.70054915  0.20561209  0.59949900  1.0
  P5+  P16  1  0.66238109  0.25231791  0.84063263  1.0
  P5+  P16  1  0.61210382  0.51785766  0.21153701  1.0
  P5+  P16  1  0.72926136  0.62454011  0.37835382  1.0
  P5+  P16  1  0.81201149  0.35667762  0.06544981  1.0
  P5+  P16  1  0.95264786  0.59594487  0.55492336  1.0
  P5+  P16  1  0.72824609  0.49305751  0.73027742  1.0
  P5+  P16  1  0.71746605  0.31466087  0.75896282  1.0
  P5+  P16  1  0.99200068  0.89364137  0.55812484  1.0
  P5+  P16  1  0.51185749  0.85307533  0.32454774  1.0
  P5+  P16  1  0.60483061  0.78646364  0.74836121  1.0
  P5+  P16  1  0.86566790  0.56366417  0.76376612  1.0
  P5+  P16  1  0.68456624  0.48358246  0.09844413  1.0
  P5+  P16  1  0.69842582  0.67180401  0.34016134  1.0
  P5+  P16  1  0.58744147  0.60834489  0.58373312  1.0
  P5+  P16  1  0.92741681  0.93086791  0.32892786  1.0
  P5+  P16  1  0.86216069  0.60568540  0.97864083  1.0
  P5+  P16  1  0.00069328  0.84932572  0.96636228  1.0
  P5+  P16  1  0.71894905  0.87631013  0.02943990  1.0
  P5+  P16  1  0.87778549  0.07130469  0.45449192  1.0
  P5+  P16  1  0.59155939  0.96446219  0.45647897  1.0
  P5+  P16  1  0.69348391  0.93040398  0.69925869  1.0
  P5+  P16  1  0.66415810  0.92467936  0.76083583  1.0
  P5+  P16  1  0.98754877  0.00125805  0.07535933  1.0
  P5+  P16  1  0.06690795  0.26281130  0.20912731  1.0
  P5+  P16  1  0.03204219  0.94155311  0.48718590  1.0
  P5+  P16  1  0.83067555  0.83849647  0.62809984  1.0
  P5+  P16  1  0.89647314  0.22461095  0.07936407  1.0
  P5+  P16  1  0.80464297  0.15911741  0.06418971  1.0
  P5+  P16  1  0.18357276  0.06145433  0.18668829  1.0
  P5+  P16  1  0.03390056  0.23703620  0.58939461  1.0
  P5+  P16  1  0.05932446  0.24351598  0.87982942  1.0
  P5+  P16  1  0.79640273  0.34329257  0.02850491  1.0
  P5+  P16  1  0.09165007  0.14046580  0.28584438  1.0
  P5+  P16  1  0.99888007  0.41960747  0.48380396  1.0
  P5+  P16  1  0.04559257  0.40923450  0.65332596  1.0
  P5+  P16  1  0.08807839  0.18758251  0.66664167  1.0
  P5+  P16  1  0.00999109  0.54708629  0.17447111  1.0
  P5+  P16  1  0.86289733  0.57916857  0.01424965  1.0
  P5+  P16  1  0.99080319  0.40056067  0.39148440  1.0
  P5+  P16  1  0.18861050  0.27029094  0.42800672  1.0
  P5+  P16  1  0.29395248  0.65855920  0.75083371  1.0
  P5+  P16  1  0.97184106  0.26325913  0.02959882  1.0
  P5+  P16  1  0.18862980  0.36037557  0.27365139  1.0
  P5+  P16  1  0.74442154  0.30589630  0.23298906  1.0
  P5+  P16  1  0.85105981  0.54461137  0.36115737  1.0
  P5+  P16  1  0.08623217  0.43705013  0.93427010  1.0
  P5+  P16  1  0.13879304  0.36387858  0.20647388  1.0
  P5+  P16  1  0.98364383  0.45435546  0.14171361  1.0
  P5+  P16  1  0.07396545  0.61268282  0.28225767  1.0
  P5+  P16  1  0.05396031  0.72851739  0.71032238  1.0
  P5+  P16  1  0.05762405  0.44684166  0.91939341  1.0
  P5+  P16  1  0.85383618  0.49911883  0.83980078  1.0
  P5+  P16  1  0.90277746  0.92068674  0.01565618  1.0
  P5+  P16  1  0.74025306  0.73870063  0.38300709  1.0
  P5+  P16  1  0.11649663  0.76607342  0.52852359  1.0
  P5+  P16  1  0.75730785  0.95411273  0.98433680  1.0
  P5+  P16  1  0.82037097  0.84729604  0.90372434  1.0
  P5+  P16  1  0.12489554  0.76173242  0.21354744  1.0
  P5+  P16  1  0.97222737  0.98335226  0.45303770  1.0
  P5+  P16  1  0.80445835  0.94998359  0.48756071  1.0
  P5+  P16  1  0.05861484  0.12533674  0.53158682  1.0
  P5+  P16  1  0.84988360  0.00026416  0.78445637  1.0
  P5+  P17  1  0.82952852  0.03839946  0.04568066  1.0
  P5+  P17  1  0.03182586  0.10689338  0.06222173  1.0
  P5+  P17  1  0.97752748  0.96304600  0.54679716  1.0
  P5+  P17  1  0.94539779  0.92426019  0.44615192  1.0
  P5+  P17  1  0.03784555  0.10629338  0.99766665  1.0
  P5+  P17  1  0.14879924  0.36910349  0.22896653  1.0
  P5+  P17  1  0.93680099  0.36953246  0.14470138  1.0
  P5+  P17  1  0.90878364  0.15212969  0.63271415  1.0
  P5+  P17  1  0.95203248  0.43255683  0.44776950  1.0
  P5+  P17  1  0.98604460  0.36712453  0.92885034  1.0
  P5+  P17  1  0.83068589  0.40259921  0.79718738  1.0
  P5+  P17  1  0.40095039  0.35046365  0.19772864  1.0
  P5+  P17  1  0.00928781  0.21592007  0.30640275  1.0
  P5+  P17  1  0.90160820  0.43160869  0.75521289  1.0
  P5+  P17  1  0.88284679  0.38034605  0.68819044  1.0
  P5+  P17  1  0.03995693  0.50125232  0.22643915  1.0
  P5+  P17  1  0.89888603  0.32699038  0.03509175  1.0
  P5+  P17  1  0.03401663  0.33261324  0.27567022  1.0
  P5+  P17  1  0.84280596  0.72663795  0.50916655  1.0
  P5+  P17  1  0.83211838  0.36914760  0.72205634  1.0
  P5+  P17  1  0.10028257  0.69362407  0.13335117  1.0
  P5+  P17  1  0.00203857  0.74404705  0.34269260  1.0
  P5+  P17  1  0.11349978  0.39854141  0.46373908  1.0
  P5+  P17  1  0.97390127  0.45875753  0.50358575  1.0
  P5+  P17  1  0.08343875  0.51107215  0.88408368  1.0
  P5+  P17  1  0.94155848  0.78474720  0.95731260  1.0
  P5+  P17  1  0.23200368  0.60036337  0.35578622  1.0
  P5+  P17  1  0.02097116  0.74925307  0.41048097  1.0
  P5+  P17  1  0.19148345  0.51972246  0.68768505  1.0
  P5+  P17  1  0.19785590  0.72466868  0.75143568  1.0
  P5+  P17  1  0.20780848  0.60569994  0.92378402  1.0
  P5+  P17  1  0.18534660  0.00710315  0.32231029  1.0
  P5+  P17  1  0.02397773  0.79683707  0.41864298  1.0
  P5+  P17  1  0.94714119  0.78637823  0.80178761  1.0
  P5+  P17  1  0.11266854  0.89862758  0.72422721  1.0
  P5+  P17  1  0.20045661  0.84065812  0.03685926  1.0
  P5+  P17  1  0.97185529  0.92187844  0.08942796  1.0
  P5+  P17  1  0.84365681  0.04708655  0.42087830  1.0
  P5+  P17  1  0.11855779  0.79389763  0.53470054  1.0
  P5+  P17  1  0.90121742  0.17677664  0.96583533  1.0
  P5+  P17  1  0.99188440  0.88663241  0.94778563  1.0
  P5+  P17  1  0.23144960  0.26985105  0.09222404  1.0
  P5+  P17  1  0.11066907  0.87832245  0.53311819  1.0
  P5+  P17  1  0.37747496  0.18322075  0.87872648  1.0
  P5+  P17  1  0.12437613  0.16656404  0.59627739  1.0
  P5+  P17  1  0.05313524  0.11125701  0.01528683  1.0
  P5+  P17  1  0.39278250  0.01318983  0.06483722  1.0
  P5+  P17  1  0.03700152  0.14895866  0.32448672  1.0
  P5+  P17  1  0.38046022  0.11686465  0.57852859  1.0
  P5+  P17  1  0.24955848  0.07863799  0.88509383  1.0
  P5+  P17  1  0.11484497  0.28437231  0.92869642  1.0
  P5+  P17  1  0.28891484  0.34071295  0.99913456  1.0
  P5+  P17  1  0.48950578  0.23697689  0.36341016  1.0
  P5+  P17  1  0.23377083  0.04822333  0.71920671  1.0
  P5+  P17  1  0.23057600  0.21316014  0.77975789  1.0
  P5+  P17  1  0.43364332  0.15492075  0.91987928  1.0
  P5+  P17  1  0.08609665  0.40087627  0.18182728  1.0
  P5+  P17  1  0.39187907  0.67226581  0.36759064  1.0
  P5+  P17  1  0.38936731  0.37702734  0.73554314  1.0
  P5+  P17  1  0.34726745  0.27983879  0.59197294  1.0
  P5+  P17  1  0.14564279  0.59505384  0.96895502  1.0
  P5+  P17  1  0.16315055  0.83638677  0.00504179  1.0
  P5+  P17  1  0.13859424  0.75151570  0.50701636  1.0
  P5+  P17  1  0.03488886  0.73012437  0.47291704  1.0
  P5+  P17  1  0.29986380  0.45675922  0.92704658  1.0
  P5+  P17  1  0.39341965  0.58656325  0.00753720  1.0
  P5+  P17  1  0.30885447  0.83299612  0.30311410  1.0
  P5+  P17  1  0.09637851  0.74402052  0.52371091  1.0
  P5+  P17  1  0.05851198  0.61148981  0.75442437  1.0
  P5+  P17  1  0.14006476  0.81153756  0.65419404  1.0
  P5+  P17  1  0.14398955  0.98465827  0.25480672  1.0
  P5+  P17  1  0.46742650  0.48976497  0.31034357  1.0
  P5+  P17  1  0.40520666  0.90026673  0.22291647  1.0
  P5+  P17  1  0.04511066  0.94048882  0.40762220  1.0
  P5+  P17  1  0.32608410  0.99992159  0.81657575  1.0
  P5+  P17  1  0.12639038  0.93247971  0.90085596  1.0
  P5+  P17  1  0.99007890  0.79605379  0.07485652  1.0
  P5+  P17  1  0.11750083  0.10742944  0.31989328  1.0
  P5+  P17  1  0.02982143  0.05098409  0.51589286  1.0
  P5+  P17  1  0.43840368  0.93172105  0.63481985  1.0
  P5+  P17  1  0.60038129  0.00514222  0.23686555  1.0
  P5+  P17  1  0.23396406  0.23810025  0.38145702  1.0
  P5+  P17  1  0.52193967  0.96700094  0.39367380  1.0
  P5+  P17  1  0.49372087  0.13884238  0.77819001  1.0
  P5+  P17  1  0.27380597  0.03216270  0.92998875  1.0
  P5+  P17  1  0.40731297  0.04799203  0.81726935  1.0
  P5+  P17  1  0.55253374  0.24060337  0.16774382  1.0
  P5+  P17  1  0.30197588  0.03651868  0.43237974  1.0
  P5+  P17  1  0.34492381  0.42611881  0.80998692  1.0
  P5+  P17  1  0.34437512  0.04727187  0.81106264  1.0
  P5+  P17  1  0.32419295  0.47960134  0.18018609  1.0
  P5+  P17  1  0.48746308  0.46469730  0.08278685  1.0
  P5+  P17  1  0.50274350  0.29168718  0.41735125  1.0
  P5+  P17  1  0.28964529  0.55424398  0.39632614  1.0
  P5+  P17  1  0.25030491  0.56854395  0.90717424  1.0
  P5+  P17  1  0.47959958  0.58980150  0.03875371  1.0
  P5+  P17  1  0.51530718  0.30093948  0.09015170  1.0
  P5+  P17  1  0.25862512  0.38325804  0.23117992  1.0
  P5+  P17  1  0.56965642  0.61982855  0.48795344  1.0
  P5+  P17  1  0.23147196  0.45475582  0.96014141  1.0
  P5+  P17  1  0.40356661  0.59959488  0.12993104  1.0
  P5+  P17  1  0.46848394  0.45016633  0.28523066  1.0
  P5+  P17  1  0.43572545  0.85000781  0.43951871  1.0
  P5+  P17  1  0.55641096  0.61889798  0.62218870  1.0
  P5+  P17  1  0.44037963  0.75443394  0.08745383  1.0
  P5+  P17  1  0.20529133  0.90817892  0.85009091  1.0
  P5+  P17  1  0.58270830  0.87128962  0.17163121  1.0
  P5+  P17  1  0.60174153  0.72572417  0.39027718  1.0
  P5+  P17  1  0.26380206  0.71219943  0.68719193  1.0
  P5+  P17  1  0.22304931  0.53444316  0.69913078  1.0
  P5+  P17  1  0.28763242  0.66401018  0.97864139  1.0
  P5+  P17  1  0.62602581  0.79966687  0.40792745  1.0
  P5+  P17  1  0.49159841  0.78659723  0.28278912  1.0
  P5+  P17  1  0.43017334  0.84255701  0.59270186  1.0
  P5+  P17  1  0.49804985  0.72615965  0.96998808  1.0
  P5+  P17  1  0.44700491  0.89410519  0.23519911  1.0
  P5+  P17  1  0.21606078  0.18792876  0.24839968  1.0
  P5+  P17  1  0.35860578  0.87431481  0.33660385  1.0
  P5+  P17  1  0.58822458  0.86020273  0.56478999  1.0
  P5+  P17  1  0.52579293  0.73837817  0.96017960  1.0
  P5+  P17  1  0.74707080  0.68444462  0.89977760  1.0
  P5+  P17  1  0.80959302  0.17872621  0.92881933  1.0
  P5+  P17  1  0.38683047  0.35509060  0.43259801  1.0
  P5+  P17  1  0.80553592  0.23478981  0.83115834  1.0
  P5+  P17  1  0.40279393  0.90320178  0.58659848  1.0
  P5+  P17  1  0.54362740  0.17089843  0.85805915  1.0
  P5+  P17  1  0.73394848  0.10167393  0.04016249  1.0
  P5+  P17  1  0.58203292  0.25817630  0.41335502  1.0
  P5+  P17  1  0.87287427  0.22855755  0.73203712  1.0
  P5+  P17  1  0.72332783  0.14213008  0.01727041  1.0
  P5+  P17  1  0.50870689  0.57470062  0.84602702  1.0
  P5+  P17  1  0.40996981  0.32696450  0.01599163  1.0
  P5+  P17  1  0.72453355  0.45264732  0.30592165  1.0
  P5+  P17  1  0.59423840  0.37537653  0.45984725  1.0
  P5+  P17  1  0.72836689  0.57137984  0.63334645  1.0
  P5+  P17  1  0.55090899  0.28547823  0.12197447  1.0
  P5+  P17  1  0.87597463  0.69107073  0.37686915  1.0
  P5+  P17  1  0.62591098  0.45531546  0.30183831  1.0
  P5+  P17  1  0.67601333  0.44216866  0.43645253  1.0
  P5+  P17  1  0.58426882  0.28031750  0.59140177  1.0
  P5+  P17  1  0.53246710  0.67300275  0.92299872  1.0
  P5+  P17  1  0.98889559  0.56551861  0.15914253  1.0
  P5+  P17  1  0.77885540  0.79290255  0.57853969  1.0
  P5+  P17  1  0.72301966  0.70483305  0.62384210  1.0
  P5+  P17  1  0.71445885  0.57205714  0.69301390  1.0
  P5+  P17  1  0.76099929  0.76194759  0.22062524  1.0
  P5+  P17  1  0.57640818  0.84060241  0.14190573  1.0
  P5+  P17  1  0.52958268  0.54851373  0.45887598  1.0
  P5+  P17  1  0.70278416  0.65353938  0.43558497  1.0
  P5+  P17  1  0.69095186  0.62548423  0.95325104  1.0
  P5+  P17  1  0.58810961  0.80666164  0.82370868  1.0
  P5+  P17  1  0.68990967  0.72220870  0.43448532  1.0
  P5+  P17  1  0.47213719  0.91122523  0.58318156  1.0
  P5+  P17  1  0.75827764  0.05790987  0.55548662  1.0
  P5+  P17  1  0.66479803  0.86903690  0.96147165  1.0
  P5+  P17  1  0.56061607  0.90607600  0.80784283  1.0
  P5+  P17  1  0.45776975  0.89806323  0.06586341  1.0
  P5+  P17  1  0.43296828  0.00520372  0.38407543  1.0
  P5+  P17  1  0.67903553  0.16399705  0.59475105  1.0
  P5+  P17  1  0.74339096  0.87303400  0.88564923  1.0
  P5+  P17  1  0.08553458  0.33445688  0.96988656  1.0
  P5+  P17  1  0.95685250  0.89463690  0.04981062  1.0
  P5+  P17  1  0.71850801  0.96979351  0.53642959  1.0
  P5+  P17  1  0.02632964  0.26018318  0.47890698  1.0
  P5+  P17  1  0.86694493  0.95146607  0.97756635  1.0
  P5+  P17  1  0.81623297  0.15650604  0.94685977  1.0
  P5+  P17  1  0.77705198  0.24120201  0.24423593  1.0
  P5+  P17  1  0.80167389  0.24106570  0.46700579  1.0
  P5+  P17  1  0.60824823  0.42986243  0.75877217  1.0
  P5+  P17  1  0.83815739  0.39013505  0.77667357  1.0
  P5+  P17  1  0.70902977  0.22672911  0.87964493  1.0
  P5+  P17  1  0.58780563  0.34096872  0.29759485  1.0
  P5+  P17  1  0.71755604  0.44668549  0.27018623  1.0
  P5+  P17  1  0.78760770  0.49816140  0.72765727  1.0
  P5+  P17  1  0.01782320  0.52937760  0.64996113  1.0
  P5+  P17  1  0.99286998  0.57071437  0.98743915  1.0
  P5+  P17  1  0.90514283  0.26954155  0.11514234  1.0
  P5+  P17  1  0.90110982  0.47230724  0.26346609  1.0
  P5+  P17  1  0.87239504  0.55410389  0.58585696  1.0
  P5+  P17  1  0.74268974  0.33284393  0.84971928  1.0
  P5+  P17  1  0.95974233  0.58005277  0.80476472  1.0
  P5+  P17  1  0.02342547  0.38392017  0.01601439  1.0
  P5+  P17  1  0.00908429  0.39965312  0.36908175  1.0
  P5+  P17  1  0.97351204  0.65762713  0.65531728  1.0
  P5+  P17  1  0.81636395  0.57462501  0.83007722  1.0
  P5+  P17  1  0.03264275  0.75087918  0.91979603  1.0
  P5+  P17  1  0.92089467  0.87584852  0.38452016  1.0
  P5+  P17  1  0.52819253  0.87541564  0.47769263  1.0
  P5+  P17  1  0.66499482  0.78072968  0.45287750  1.0
  P5+  P17  1  0.84793958  0.73834220  0.93492934  1.0
  P5+  P17  1  0.02491919  0.04644199  0.87649499  1.0
  P5+  P17  1  0.00336365  0.90608104  0.40239473  1.0
  P5+  P17  1  0.76626827  0.60325001  0.60728500  1.0
  P5+  P17  1  0.78192644  0.74958873  0.62088581  1.0
  P5+  P17  1  0.90471983  0.84888598  0.70192373  1.0
  P5+  P17  1  0.00086445  0.06579998  0.01813020  1.0
  P5+  P17  1  0.73514827  0.90137395  0.41401441  1.0
  P5+  P17  1  0.74273231  0.18196764  0.65489389  1.0
  P5+  P17  1  0.60046289  0.18155681  0.82546162  1.0
  P5+  P17  1  0.75815909  0.07158663  0.98537168  1.0
  P5+  P18  1  0.23923091  0.09487675  0.27196764  1.0
  P5+  P18  1  0.33934405  0.02527736  0.37745022  1.0
  P5+  P18  1  0.19637809  0.19338063  0.33258988  1.0
  P5+  P18  1  0.02072767  0.05640877  0.65547507  1.0
  P5+  P18  1  0.27619887  0.23445306  0.81140317  1.0
  P5+  P18  1  0.09384057  0.97691141  0.13435283  1.0
  P5+  P18  1  0.11071748  0.19053438  0.34842393  1.0
  P5+  P18  1  0.27812120  0.97614419  0.53412813  1.0
  P5+  P18  1  0.32545830  0.35568801  0.44909347  1.0
  P5+  P18  1  0.88259164  0.30509197  0.01118658  1.0
  P5+  P18  1  0.16376728  0.27016487  0.11975935  1.0
  P5+  P18  1  0.14866187  0.14768463  0.40778963  1.0
  P5+  P18  1  0.87834173  0.33072868  0.35353457  1.0
  P5+  P18  1  0.35687657  0.31854383  0.94876490  1.0
  P5+  P18  1  0.87989391  0.46848470  0.82408266  1.0
  P5+  P18  1  0.27657023  0.56868257  0.03873989  1.0
  P5+  P18  1  0.18152430  0.53867951  0.38461136  1.0
  P5+  P18  1  0.16924591  0.32051135  0.56554939  1.0
  P5+  P18  1  0.14325918  0.61874028  0.53606306  1.0
  P5+  P18  1  0.09174299  0.72702361  0.80855293  1.0
  P5+  P18  1  0.17466303  0.68583295  0.25424274  1.0
  P5+  P18  1  0.98043717  0.77495536  0.38473290  1.0
  P5+  P18  1  0.01639857  0.57021737  0.74783995  1.0
  P5+  P18  1  0.06463208  0.44652923  0.67198897  1.0
  P5+  P18  1  0.30066606  0.60317801  0.03448269  1.0
  P5+  P18  1  0.83299893  0.86789252  0.07200554  1.0
  P5+  P18  1  0.35793954  0.86463104  0.55315780  1.0
  P5+  P18  1  0.18071402  0.72183791  0.36280550  1.0
  P5+  P18  1  0.98511137  0.62767387  0.71921050  1.0
  P5+  P18  1  0.20596705  0.65469072  0.88420794  1.0
  P5+  P18  1  0.28979645  0.58968399  0.36231836  1.0
  P5+  P18  1  0.06590425  0.90270732  0.43603702  1.0
  P5+  P18  1  0.16809423  0.00009404  0.57459620  1.0
  P5+  P18  1  0.00971436  0.76339957  0.64832441  1.0
  P5+  P18  1  0.34570365  0.63019086  0.78278016  1.0
  P5+  P18  1  0.16884117  0.00868112  0.29158723  1.0
  P5+  P18  1  0.99055483  0.03412940  0.53889501  1.0
  P5+  P18  1  0.12749901  0.90905988  0.66314823  1.0
  P5+  P18  1  0.10607390  0.74765020  0.74176008  1.0
  P5+  P18  1  0.02111799  0.92592620  0.58734399  1.0
  P5+  P18  1  0.30201138  0.70473251  0.32495858  1.0
  P5+  P18  1  0.37867093  0.02429792  0.50736215  1.0
  P5+  P18  1  0.12651486  0.15138134  0.63289744  1.0
  P5+  P18  1  0.33508824  0.01901250  0.92399943  1.0
  P5+  P18  1  0.38059311  0.96177321  0.82029001  1.0
  P5+  P18  1  0.12112293  0.95638070  0.22126622  1.0
  P5+  P18  1  0.07078435  0.36118064  0.36037281  1.0
  P5+  P18  1  0.20927844  0.24493916  0.33385871  1.0
  P5+  P18  1  0.33538296  0.94687692  0.69191578  1.0
  P5+  P18  1  0.30110410  0.27628277  0.95784107  1.0
  P5+  P18  1  0.30895836  0.31557841  0.15015029  1.0
  P5+  P18  1  0.12570394  0.47850022  0.23816730  1.0
  P5+  P18  1  0.23750110  0.26509213  0.46423696  1.0
  P5+  P18  1  0.42823990  0.27047193  0.64102075  1.0
  P5+  P18  1  0.19366564  0.43804846  0.92813102  1.0
  P5+  P18  1  0.20597983  0.37443938  0.24494963  1.0
  P5+  P18  1  0.37172725  0.59864645  0.17720232  1.0
  P5+  P18  1  0.32128833  0.38881815  0.50611636  1.0
  P5+  P18  1  0.24193971  0.62489973  0.48290587  1.0
  P5+  P18  1  0.20438881  0.37621626  0.91950185  1.0
  P5+  P18  1  0.45213072  0.42658676  0.02641299  1.0
  P5+  P18  1  0.19801879  0.50244618  0.53992378  1.0
  P5+  P18  1  0.37869339  0.54909380  0.38164696  1.0
  P5+  P18  1  0.44474486  0.45414516  0.57188234  1.0
  P5+  P18  1  0.33484331  0.55779012  0.99090044  1.0
  P5+  P18  1  0.04556346  0.55067647  0.93205152  1.0
  P5+  P18  1  0.53210191  0.65149922  0.32507977  1.0
  P5+  P18  1  0.05013685  0.61857596  0.54718150  1.0
  P5+  P18  1  0.30044474  0.80365287  0.52963535  1.0
  P5+  P18  1  0.58275961  0.46911981  0.79532774  1.0
  P5+  P18  1  0.20433598  0.88320774  0.30443521  1.0
  P5+  P18  1  0.52221084  0.58747596  0.22147918  1.0
  P5+  P18  1  0.41835311  0.01074843  0.77894361  1.0
  P5+  P18  1  0.32713180  0.94613381  0.83378661  1.0
  P5+  P18  1  0.08765688  0.79479757  0.85292293  1.0
  P5+  P18  1  0.45159960  0.16282531  0.96723077  1.0
  P5+  P18  1  0.45323169  0.75548466  0.18221948  1.0
  P5+  P18  1  0.39733393  0.15769008  0.33741697  1.0
  P5+  P18  1  0.56019632  0.71915104  0.63628832  1.0
  P5+  P18  1  0.52792158  0.81173541  0.77503685  1.0
  P5+  P18  1  0.37571305  0.09701513  0.93946585  1.0
  P5+  P18  1  0.59166778  0.24015809  0.56063432  1.0
  P5+  P18  1  0.62255728  0.28188682  0.43292493  1.0
  P5+  P18  1  0.47305224  0.02746696  0.81044932  1.0
  P5+  P18  1  0.36629770  0.05019447  0.07985310  1.0
  P5+  P18  1  0.31934736  0.35743177  0.10521193  1.0
  P5+  P18  1  0.72837547  0.20430358  0.49457336  1.0
  P5+  P18  1  0.48878794  0.28861547  0.39062318  1.0
  P5+  P18  1  0.59536196  0.20784028  0.71024906  1.0
  P5+  P18  1  0.62988818  0.23966986  0.05913821  1.0
  P5+  P18  1  0.46103905  0.39570472  0.95878567  1.0
  P5+  P18  1  0.46118729  0.41927368  0.50947046  1.0
  P5+  P18  1  0.37751724  0.45503286  0.59894374  1.0
  P5+  P18  1  0.72702339  0.08129609  0.89594798  1.0
  P5+  P18  1  0.46300623  0.43541883  0.00500999  1.0
  P5+  P18  1  0.39866513  0.19806900  0.32219424  1.0
  P5+  P18  1  0.56709934  0.49970995  0.46544922  1.0
  P5+  P18  1  0.51781220  0.39084451  0.43357266  1.0
  P5+  P18  1  0.49532143  0.44129829  0.74569932  1.0
  P5+  P18  1  0.41469206  0.42206405  0.11499251  1.0
  P5+  P18  1  0.51350948  0.69888371  0.99876429  1.0
  P5+  P18  1  0.77387998  0.50857923  0.22899164  1.0
  P5+  P18  1  0.58957114  0.79918409  0.44473741  1.0
  P5+  P18  1  0.58718823  0.42608402  0.76728689  1.0
  P5+  P18  1  0.67911735  0.37516158  0.85230033  1.0
  P5+  P18  1  0.57948781  0.84555206  0.30742353  1.0
  P5+  P18  1  0.41360375  0.58087033  0.13764340  1.0
  P5+  P18  1  0.26111179  0.44344249  0.60618296  1.0
  P5+  P18  1  0.52839141  0.62111006  0.55187110  1.0
  P5+  P18  1  0.58374652  0.45410969  0.87270363  1.0
  P5+  P18  1  0.45293283  0.35340012  0.81883778  1.0
  P5+  P18  1  0.73786067  0.91953450  0.16087526  1.0
  P5+  P18  1  0.55537173  0.88670182  0.74557329  1.0
  P5+  P18  1  0.63287365  0.84566036  0.71656772  1.0
  P5+  P18  1  0.46806085  0.75094366  0.03811852  1.0
  P5+  P18  1  0.55446045  0.75923402  0.97370563  1.0
  P5+  P18  1  0.68031974  0.11585869  0.28984633  1.0
  P5+  P18  1  0.58034683  0.99119617  0.32068950  1.0
  P5+  P18  1  0.55793043  0.15459763  0.94373075  1.0
  P5+  P18  1  0.50767607  0.95673436  0.35247300  1.0
  P5+  P18  1  0.97180073  0.95932670  0.35845333  1.0
  P5+  P18  1  0.62801127  0.84525242  0.42141036  1.0
  P5+  P18  1  0.44817615  0.77508272  0.12172756  1.0
  P5+  P18  1  0.64024072  0.02263635  0.55639587  1.0
  P5+  P18  1  0.46393481  0.88674927  0.07295425  1.0
  P5+  P18  1  0.54185513  0.98324355  0.24126858  1.0
  P5+  P18  1  0.74327235  0.06434109  0.49150623  1.0
  P5+  P18  1  0.47651294  0.40797912  0.42830183  1.0
  P5+  P18  1  0.69507153  0.17862993  0.75413461  1.0
  P5+  P18  1  0.73559072  0.29933003  0.87915256  1.0
  P5+  P18  1  0.49979442  0.47121698  0.28518446  1.0
  P5+  P18  1  0.78429852  0.24026058  0.27068792  1.0
  P5+  P18  1  0.60346237  0.20545414  0.32636818  1.0
  P5+  P18  1  0.90603822  0.54349238  0.75787093  1.0
  P5+  P18  1  0.50173218  0.47572146  0.98554440  1.0
  P5+  P18  1  0.87717107  0.21624743  0.99856566  1.0
  P5+  P18  1  0.74146687  0.32024720  0.32477443  1.0
  P5+  P18  1  0.66224693  0.58524521  0.60074964  1.0
  P5+  P18  1  0.76105108  0.45603814  0.66391257  1.0
  P5+  P18  1  0.90305866  0.15059840  0.59613737  1.0
  P5+  P18  1  0.71134024  0.48322115  0.26192491  1.0
  P5+  P18  1  0.81949338  0.52625492  0.28626365  1.0
  P5+  P18  1  0.80366642  0.76172445  0.59357392  1.0
  P5+  P18  1  0.71006425  0.49258914  0.80373144  1.0
  P5+  P18  1  0.85024443  0.45805922  0.80527832  1.0
  P5+  P18  1  0.91699255  0.74386428  0.25806353  1.0
  P5+  P18  1  0.74934224  0.32196881  0.24814598  1.0
  P5+  P18  1  0.55029660  0.75596440  0.51328790  1.0
  P5+  P18  1  0.80954901  0.50399438  0.79535635  1.0
  P5+  P18  1  0.59979872  0.57515783  0.72263456  1.0
  P5+  P18  1  0.70122299  0.70289804  0.27907365  1.0
  P5+  P18  1  0.39396484  0.50158862  0.41641571  1.0
  P5+  P18  1  0.61197281  0.80821345  0.55356481  1.0
  P5+  P18  1  0.71881751  0.93284739  0.59254783  1.0
  P5+  P18  1  0.64040744  0.89858863  0.91414722  1.0
  P5+  P18  1  0.61436905  0.95481693  0.20107256  1.0
  P5+  P18  1  0.62962009  0.94666456  0.45403172  1.0
  P5+  P18  1  0.74501017  0.76331138  0.56192676  1.0
  P5+  P18  1  0.59750445  0.88168034  0.06306289  1.0
  P5+  P18  1  0.83575255  0.80447692  0.94881725  1.0
  P5+  P18  1  0.98753257  0.17764161  0.26111360  1.0
  P5+  P18  1  0.05132645  0.94369036  0.35863628  1.0
  P5+  P18  1  0.90186814  0.92277386  0.35594115  1.0
  P5+  P18  1  0.88115045  0.24472330  0.73020858  1.0
  P5+  P18  1  0.76345071  0.94551066  0.11774168  1.0
  P5+  P18  1  0.94298911  0.97261000  0.02848358  1.0
  P5+  P18  1  0.09983089  0.26606097  0.20842093  1.0
  P5+  P18  1  0.79486089  0.27534052  0.42939232  1.0
  P5+  P18  1  0.92599238  0.96467651  0.66182251  1.0
  P5+  P18  1  0.69175107  0.40008884  0.74985017  1.0
  P5+  P18  1  0.98790291  0.35891963  0.15346569  1.0
  P5+  P18  1  0.64561935  0.18404785  0.10013273  1.0
  P5+  P18  1  0.15758890  0.49565403  0.66782139  1.0
  P5+  P18  1  0.90066500  0.43947298  0.62952485  1.0
  P5+  P18  1  0.86948435  0.22656271  0.82577767  1.0
  P5+  P18  1  0.09942520  0.28361475  0.18788672  1.0
  P5+  P18  1  0.89878862  0.46229928  0.39330310  1.0
  P5+  P18  1  0.82501065  0.45435570  0.61314319  1.0
  P5+  P18  1  0.83538775  0.60764001  0.61235298  1.0
  P5+  P18  1  0.62478722  0.25218571  0.94642237  1.0
  P5+  P18  1  0.09440100  0.67914529  0.92790263  1.0
  P5+  P18  1  0.95078336  0.73773178  0.41213265  1.0
  P5+  P18  1  0.77008718  0.56793470  0.64448122  1.0
  P5+  P18  1  0.92968134  0.59569143  0.73267489  1.0
  P5+  P18  1  0.96292537  0.76895525  0.90615665  1.0
  P5+  P18  1  0.08326638  0.50853926  0.22354808  1.0
  P5+  P18  1  0.09843778  0.90908340  0.23197559  1.0
  P5+  P18  1  0.89194962  0.59062527  0.57083731  1.0
  P5+  P18  1  0.84119206  0.50585696  0.62935926  1.0
  P5+  P18  1  0.92048209  0.57506834  0.06509506  1.0
  P5+  P18  1  0.09699630  0.57711488  0.28612066  1.0
  P5+  P18  1  0.88882662  0.86150110  0.31888380  1.0
  P5+  P18  1  0.07408274  0.65026087  0.50547400  1.0
  P5+  P18  1  0.93694762  0.00649269  0.53274008  1.0
  P5+  P18  1  0.14167144  0.85604666  0.99450445  1.0
  P5+  P18  1  0.05282645  0.00534375  0.21382319  1.0
  P5+  P18  1  0.66464059  0.93359861  0.21721917  1.0
  P5+  P18  1  0.70001207  0.72324596  0.42070685  1.0
  P5+  P18  1  0.75651684  0.03907543  0.53708291  1.0
  P5+  P18  1  0.65523446  0.12023680  0.09444318  1.0
  P5+  P19  1  0.95904846  0.08542947  0.12080991  1.0
  P5+  P19  1  0.97690017  0.24399606  0.39063361  1.0
  P5+  P19  1  0.80897257  0.85841070  0.25817467  1.0
  P5+  P19  1  0.05372536  0.05209828  0.84330281  1.0
  P5+  P19  1  0.97691233  0.81323541  0.90706098  1.0
  P5+  P19  1  0.04288762  0.29533963  0.24070430  1.0
  P5+  P19  1  0.17762510  0.22168458  0.39323301  1.0
  P5+  P19  1  0.13327545  0.02865439  0.31772150  1.0
  P5+  P19  1  0.31495211  0.82908029  0.84931579  1.0
  P5+  P19  1  0.91243504  0.35513624  0.99534456  1.0
  P5+  P19  1  0.93816647  0.33014020  0.09782298  1.0
  P5+  P19  1  0.11619957  0.18802541  0.55575737  1.0
  P5+  P19  1  0.91519813  0.11647598  0.46596856  1.0
  P5+  P19  1  0.01051721  0.07702403  0.83541209  1.0
  P5+  P19  1  0.13658377  0.33293080  0.91791154  1.0
  P5+  P19  1  0.83911993  0.26332418  0.89028030  1.0
  P5+  P19  1  0.12881674  0.40452511  0.24710749  1.0
  P5+  P19  1  0.09365549  0.60624656  0.28549551  1.0
  P5+  P19  1  0.94649748  0.52831622  0.75614887  1.0
  P5+  P19  1  0.91420558  0.32313176  0.07457808  1.0
  P5+  P19  1  0.83200031  0.49758692  0.08809279  1.0
  P5+  P19  1  0.01388502  0.57518067  0.21679543  1.0
  P5+  P19  1  0.01968933  0.51411798  0.28963777  1.0
  P5+  P19  1  0.80494276  0.66597103  0.60706362  1.0
  P5+  P19  1  0.16116898  0.68203651  0.99380259  1.0
  P5+  P19  1  0.99858981  0.59485435  0.16915262  1.0
  P5+  P19  1  0.96933391  0.63179674  0.29479170  1.0
  P5+  P19  1  0.82193619  0.49512734  0.72433698  1.0
  P5+  P19  1  0.95684052  0.94987772  0.65552499  1.0
  P5+  P19  1  0.71476554  0.91521036  0.71686880  1.0
  P5+  P19  1  0.93695554  0.62282622  0.86847699  1.0
  P5+  P19  1  0.86660308  0.70213564  0.24150866  1.0
  P5+  P19  1  0.00979045  0.77614557  0.70180829  1.0
  P5+  P19  1  0.00456917  0.93795680  0.57910920  1.0
  P5+  P19  1  0.01395129  0.77174925  0.76613350  1.0
  P5+  P19  1  0.92777789  0.82115222  0.93158637  1.0
  P5+  P19  1  0.16796351  0.79617124  0.42232258  1.0
  P5+  P19  1  0.00308180  0.78267925  0.38203816  1.0
  P5+  P19  1  0.09426551  0.05564587  0.52108691  1.0
  P5+  P19  1  0.10450301  0.05063847  0.81059673  1.0
  P5+  P19  1  0.21139639  0.18387068  0.29516910  1.0
  P5+  P19  1  0.31992510  0.04230562  0.14125224  1.0
  P5+  P19  1  0.23106847  0.98899776  0.32783169  1.0
  P5+  P19  1  0.18985697  0.19358325  0.58666286  1.0
  P5+  P19  1  0.38540151  0.03896739  0.03948167  1.0
  P5+  P19  1  0.96308607  0.96657193  0.29676691  1.0
  P5+  P19  1  0.04068994  0.21625799  0.27449043  1.0
  P5+  P19  1  0.15091170  0.36680852  0.47309010  1.0
  P5+  P19  1  0.35695924  0.11029557  0.88231233  1.0
  P5+  P19  1  0.12289786  0.08462871  0.83726922  1.0
  P5+  P19  1  0.12041975  0.40404187  0.96958731  1.0
  P5+  P19  1  0.22572776  0.18775380  0.19502822  1.0
  P5+  P19  1  0.18326389  0.13324996  0.73014187  1.0
  P5+  P19  1  0.04225044  0.08229648  0.85143639  1.0
  P5+  P19  1  0.05478364  0.34975802  0.07926095  1.0
  P5+  P19  1  0.37069646  0.27219400  0.18554435  1.0
  P5+  P19  1  0.23787633  0.59128944  0.30782278  1.0
  P5+  P19  1  0.18507765  0.23309771  0.57736421  1.0
  P5+  P19  1  0.09230720  0.37353206  0.68652602  1.0
  P5+  P19  1  0.99656097  0.23289931  0.92391169  1.0
  P5+  P19  1  0.12533420  0.59037813  0.22950586  1.0
  P5+  P19  1  0.02726780  0.66193326  0.22426792  1.0
  P5+  P19  1  0.39112165  0.31265767  0.66089977  1.0
  P5+  P19  1  0.32392856  0.64142347  0.72540342  1.0
  P5+  P19  1  0.37447083  0.41873185  0.75392500  1.0
  P5+  P19  1  0.22647855  0.78009759  0.05120651  1.0
  P5+  P19  1  0.42723924  0.44414787  0.40562558  1.0
  P5+  P19  1  0.27004556  0.75266859  0.48597006  1.0
  P5+  P19  1  0.27775691  0.71752653  0.70481423  1.0
  P5+  P19  1  0.16394575  0.84871548  0.82231613  1.0
  P5+  P19  1  0.20311572  0.73376029  0.30427499  1.0
  P5+  P19  1  0.05454322  0.47167529  0.55544568  1.0
  P5+  P19  1  0.97478640  0.61079027  0.82976514  1.0
  P5+  P19  1  0.07817992  0.70287613  0.68787655  1.0
  P5+  P19  1  0.35568847  0.85759679  0.00751358  1.0
  P5+  P19  1  0.09440117  0.81770331  0.11583272  1.0
  P5+  P19  1  0.06634147  0.87344586  0.27230114  1.0
  P5+  P19  1  0.30657198  0.96341376  0.65908655  1.0
  P5+  P19  1  0.30168400  0.97251448  0.56785306  1.0
  P5+  P19  1  0.07564037  0.86685887  0.94218427  1.0
  P5+  P19  1  0.51204217  0.86638978  0.28272513  1.0
  P5+  P19  1  0.54730623  0.97625425  0.40429422  1.0
  P5+  P19  1  0.47647483  0.92677730  0.35655647  1.0
  P5+  P19  1  0.25124913  0.09432896  0.65841319  1.0
  P5+  P19  1  0.31601941  0.98169479  0.73459851  1.0
  P5+  P19  1  0.22477434  0.92896563  0.26133337  1.0
  P5+  P19  1  0.21485593  0.98404868  0.43253853  1.0
  P5+  P19  1  0.28707700  0.10840524  0.33861506  1.0
  P5+  P19  1  0.48188206  0.22328804  0.69710611  1.0
  P5+  P19  1  0.54764651  0.10341567  0.05297891  1.0
  P5+  P19  1  0.38194734  0.28057962  0.20126563  1.0
  P5+  P19  1  0.60474273  0.40805349  0.37704947  1.0
  P5+  P19  1  0.44555536  0.42940993  0.60474411  1.0
  P5+  P19  1  0.48476976  0.28787133  0.68864653  1.0
  P5+  P19  1  0.41932537  0.13178911  0.78091869  1.0
  P5+  P19  1  0.38726248  0.20759112  0.89916331  1.0
  P5+  P19  1  0.34411988  0.61956837  0.40128218  1.0
  P5+  P19  1  0.26273956  0.56607833  0.37936224  1.0
  P5+  P19  1  0.46271714  0.48433786  0.61273980  1.0
  P5+  P19  1  0.58311467  0.31827685  0.02253882  1.0
  P5+  P19  1  0.37397640  0.55116333  0.04995528  1.0
  P5+  P19  1  0.51484850  0.58751918  0.48507429  1.0
  P5+  P19  1  0.48193125  0.68133165  0.67175417  1.0
  P5+  P19  1  0.17821211  0.37458638  0.77099721  1.0
  P5+  P19  1  0.30775380  0.30088973  0.95999006  1.0
  P5+  P19  1  0.57700858  0.71796989  0.99133306  1.0
  P5+  P19  1  0.56318883  0.47717190  0.27406625  1.0
  P5+  P19  1  0.56881396  0.54247768  0.25885066  1.0
  P5+  P19  1  0.60840519  0.80308567  0.88862447  1.0
  P5+  P19  1  0.46934032  0.81883307  0.91968287  1.0
  P5+  P19  1  0.39676836  0.95603073  0.00562365  1.0
  P5+  P19  1  0.24005682  0.57220075  0.27777424  1.0
  P5+  P19  1  0.42937607  0.79658581  0.53763256  1.0
  P5+  P19  1  0.35775233  0.68735803  0.72868270  1.0
  P5+  P19  1  0.30689456  0.67321605  0.01501978  1.0
  P5+  P19  1  0.57739279  0.09971313  0.27559916  1.0
  P5+  P19  1  0.50224932  0.84236242  0.31417534  1.0
  P5+  P19  1  0.30518523  0.78813496  0.48117486  1.0
  P5+  P19  1  0.56285932  0.80568141  0.88236440  1.0
  P5+  P19  1  0.24130933  0.03314755  0.11933794  1.0
  P5+  P19  1  0.50975238  0.22980133  0.91279208  1.0
  P5+  P19  1  0.47341977  0.94837458  0.12148620  1.0
  P5+  P19  1  0.68772648  0.26910135  0.72625825  1.0
  P5+  P19  1  0.52100878  0.09100892  0.59358889  1.0
  P5+  P19  1  0.62477858  0.93652982  0.89773580  1.0
  P5+  P19  1  0.52335270  0.01515636  0.31716806  1.0
  P5+  P19  1  0.47554935  0.33642079  0.22433744  1.0
  P5+  P19  1  0.77983061  0.08085103  0.45506302  1.0
  P5+  P19  1  0.59681930  0.10238216  0.47532606  1.0
  P5+  P19  1  0.72337741  0.14922587  0.99514745  1.0
  P5+  P19  1  0.51419656  0.32240781  0.08977515  1.0
  P5+  P19  1  0.79460149  0.34100716  0.46448033  1.0
  P5+  P19  1  0.57657377  0.41970012  0.31659267  1.0
  P5+  P19  1  0.80242522  0.20960159  0.89130179  1.0
  P5+  P19  1  0.44237656  0.34745380  0.77122911  1.0
  P5+  P19  1  0.60285172  0.37878211  0.42573845  1.0
  P5+  P19  1  0.74524429  0.29794601  0.39543456  1.0
  P5+  P19  1  0.69742655  0.36663395  0.81111774  1.0
  P5+  P19  1  0.51121724  0.32805721  0.78800684  1.0
  P5+  P19  1  0.50776158  0.32580061  0.07356571  1.0
  P5+  P19  1  0.90107044  0.58377654  0.08398625  1.0
  P5+  P19  1  0.65085588  0.53226875  0.30465302  1.0
  P5+  P19  1  0.69433254  0.64204769  0.38075790  1.0
  P5+  P19  1  0.72500751  0.33850848  0.80366960  1.0
  P5+  P19  1  0.75105019  0.62027741  0.96354360  1.0
  P5+  P19  1  0.56172137  0.64792636  0.29551026  1.0
  P5+  P19  1  0.56789051  0.62486554  0.26983969  1.0
  P5+  P19  1  0.50391543  0.72489620  0.67778501  1.0
  P5+  P19  1  0.53318728  0.44140816  0.76869529  1.0
  P5+  P19  1  0.61698159  0.86302222  0.71354611  1.0
  P5+  P19  1  0.50328262  0.63635451  0.05460995  1.0
  P5+  P19  1  0.60528867  0.84536958  0.43058154  1.0
  P5+  P19  1  0.65536921  0.79030043  0.54037719  1.0
  P5+  P19  1  0.65847420  0.62884237  0.62251622  1.0
  P5+  P19  1  0.43414335  0.97456908  0.04148383  1.0
  P5+  P19  1  0.65981604  0.09783027  0.26893939  1.0
  P5+  P19  1  0.81673590  0.02180770  0.09723197  1.0
  P5+  P19  1  0.77386754  0.98024535  0.40678452  1.0
  P5+  P19  1  0.70739137  0.68434303  0.58852537  1.0
  P5+  P19  1  0.54074616  0.87546562  0.91052374  1.0
  P5+  P19  1  0.63349557  0.90493653  0.14895711  1.0
  P5+  P19  1  0.68902068  0.16066657  0.18654613  1.0
  P5+  P19  1  0.94766674  0.04378752  0.59071222  1.0
  P5+  P19  1  0.95678513  0.21250995  0.67527195  1.0
  P5+  P19  1  0.72053787  0.14790300  0.84972105  1.0
  P5+  P19  1  0.90415089  0.11296296  0.11897741  1.0
  P5+  P19  1  0.76925863  0.27850862  0.32368385  1.0
  P5+  P19  1  0.95857461  0.04497439  0.52466838  1.0
  P5+  P19  1  0.97981496  0.05710843  0.93075491  1.0
  P5+  P19  1  0.59521307  0.93407716  0.09497489  1.0
  P5+  P19  1  0.53761373  0.12969222  0.06944433  1.0
  P5+  P19  1  0.61807761  0.44283024  0.28742174  1.0
  P5+  P19  1  0.83710546  0.46076833  0.60180846  1.0
  P5+  P19  1  0.67843256  0.23548069  0.69811896  1.0
  P5+  P19  1  0.73180203  0.45801772  0.05295607  1.0
  P5+  P19  1  0.88677127  0.36757851  0.10342402  1.0
  P5+  P19  1  0.01633319  0.37034876  0.14158253  1.0
  P5+  P19  1  0.62466582  0.24594238  0.56289807  1.0
  P5+  P19  1  0.97803902  0.51356541  0.86029931  1.0
  P5+  P19  1  0.80843219  0.36062264  0.88200592  1.0
  P5+  P19  1  0.73011131  0.59903445  0.99809078  1.0
  P5+  P19  1  0.82949841  0.29200912  0.53220942  1.0
  P5+  P19  1  0.84088562  0.49215877  0.44050364  1.0
  P5+  P19  1  0.71474246  0.58009965  0.73490840  1.0
  P5+  P19  1  0.80044954  0.54398261  0.85847518  1.0
  P5+  P19  1  0.22615048  0.70194197  0.97733209  1.0
  P5+  P19  1  0.96995890  0.48583217  0.53847995  1.0
  P5+  P19  1  0.97438700  0.72461486  0.59912469  1.0
  P5+  P19  1  0.97634933  0.45719726  0.58675026  1.0
  P5+  P19  1  0.97831715  0.83975044  0.93990705  1.0
  P5+  P19  1  0.85148806  0.75112745  0.98731063  1.0
  P5+  P19  1  0.63106695  0.57665016  0.13249699  1.0
  P5+  P19  1  0.91144678  0.70871769  0.41147369  1.0
  P5+  P19  1  0.97455798  0.78701988  0.78903816  1.0
  P5+  P19  1  0.09713433  0.79052672  0.69166164  1.0
  P5+  P19  1  0.99496376  0.96996570  0.05428919  1.0
  P5+  P19  1  0.98580186  0.75936242  0.43995298  1.0
  P5+  P19  1  0.63034067  0.98474052  0.27176595  1.0
  P5+  P19  1  0.72200511  0.86697717  0.70901653  1.0
  P5+  P19  1  0.90350984  0.82348856  0.94506712  1.0
  S2-  S20  1  0.19482231  0.10560038  0.07515857  1.0
  S2-  S20  1  0.19525309  0.10419234  0.27044656  1.0
  S2-  S20  1  0.18312870  0.10113866  0.46728172  1.0
  S2-  S20  1  0.19002799  0.10300375  0.66393564  1.0
  S2-  S20  1  0.17780587  0.10071874  0.86830889  1.0
  S2-  S20  1  0.19738058  0.23128194  0.26256293  1.0
  S2-  S20  1  0.97586227  0.43538941  0.56780952  1.0
  S2-  S20  1  0.20138964  0.22835762  0.66788238  1.0
  S2-  S20  1  0.17960335  0.22986307  0.87493020  1.0
  S2-  S20  1  0.18165142  0.35129009  0.06264870  1.0
  S2-  S20  1  0.17739052  0.35126500  0.25890707  1.0
  S2-  S20  1  0.17266283  0.35198236  0.46276448  1.0
  S2-  S20  1  0.18337528  0.35680311  0.66788251  1.0
  S2-  S20  1  0.19136466  0.47955955  0.06625052  1.0
  S2-  S20  1  0.18107673  0.47424646  0.26513867  1.0
  S2-  S20  1  0.17625737  0.47496527  0.46798981  1.0
  S2-  S20  1  0.17362780  0.48265786  0.67297346  1.0
  S2-  S20  1  0.18490288  0.48287350  0.86239710  1.0
  S2-  S20  1  0.19153582  0.60210641  0.05604745  1.0
  S2-  S20  1  0.00287334  0.37288426  0.12756492  1.0
  S2-  S20  1  0.17596322  0.60116085  0.46492598  1.0
  S2-  S20  1  0.17346364  0.77599599  0.67378812  1.0
  S2-  S20  1  0.18997843  0.60104566  0.85828234  1.0
  S2-  S20  1  0.17933657  0.72883490  0.06332474  1.0
  S2-  S20  1  0.17265568  0.72295948  0.25977141  1.0
  S2-  S20  1  0.18071148  0.72376635  0.46086505  1.0
  S2-  S20  1  0.17026077  0.72663165  0.67010689  1.0
  S2-  S20  1  0.17836619  0.72189382  0.86216365  1.0
  S2-  S20  1  0.08902528  0.61921514  0.26547592  1.0
  S2-  S20  1  0.18387560  0.85176753  0.26929496  1.0
  S2-  S20  1  0.18233444  0.85474357  0.47204452  1.0
  S2-  S20  1  0.17524202  0.85448993  0.66197887  1.0
  S2-  S20  1  0.16095924  0.85360518  0.86465650  1.0
  S2-  S20  1  0.16470909  0.97557128  0.05784489  1.0
  S2-  S20  1  0.18483207  0.97199942  0.26189189  1.0
  S2-  S20  1  0.15941697  0.97828928  0.46208311  1.0
  S2-  S20  1  0.18091420  0.98170957  0.65316985  1.0
  S2-  S20  1  0.08511161  0.16845722  0.96631878  1.0
  S2-  S20  1  0.39379258  0.10058222  0.26333650  1.0
  S2-  S20  1  0.39664938  0.10496893  0.47791501  1.0
  S2-  S20  1  0.31281100  0.08305879  0.65953649  1.0
  S2-  S20  1  0.38288617  0.10556740  0.86526631  1.0
  S2-  S20  1  0.37235031  0.22582525  0.06136289  1.0
  S2-  S20  1  0.37274173  0.22555813  0.25697394  1.0
  S2-  S20  1  0.20466124  0.03500942  0.34243938  1.0
  S2-  S20  1  0.40374120  0.22456052  0.66707556  1.0
  S2-  S20  1  0.38580781  0.22917283  0.86206456  1.0
  S2-  S20  1  0.37916139  0.35337976  0.06140419  1.0
  S2-  S20  1  0.36795745  0.35632525  0.26812679  1.0
  S2-  S20  1  0.37955171  0.35281134  0.46734718  1.0
  S2-  S20  1  0.39529940  0.35239163  0.66239565  1.0
  S2-  S20  1  0.39646692  0.35236052  0.86458880  1.0
  S2-  S20  1  0.38778431  0.48081741  0.06576414  1.0
  S2-  S20  1  0.39075469  0.47637153  0.26704184  1.0
  S2-  S20  1  0.37543996  0.48053982  0.46120157  1.0
  S2-  S20  1  0.38152935  0.47220365  0.66122380  1.0
  S2-  S20  1  0.38132821  0.47482969  0.86182138  1.0
  S2-  S20  1  0.38593470  0.60388855  0.06528643  1.0
  S2-  S20  1  0.39845825  0.60582894  0.26702986  1.0
  S2-  S20  1  0.36678916  0.60046318  0.45042709  1.0
  S2-  S20  1  0.38410100  0.60662301  0.66965716  1.0
  S2-  S20  1  0.38014153  0.59967923  0.86271227  1.0
  S2-  S20  1  0.40744820  0.73190329  0.06800663  1.0
  S2-  S20  1  0.37365495  0.73425264  0.26252565  1.0
  S2-  S20  1  0.38201102  0.72196836  0.45951912  1.0
  S2-  S20  1  0.36237341  0.72326250  0.65504335  1.0
  S2-  S20  1  0.38602826  0.72673826  0.87663408  1.0
  S2-  S20  1  0.39646863  0.85581990  0.26932740  1.0
  S2-  S20  1  0.38801906  0.85592937  0.45475461  1.0
  S2-  S20  1  0.37113595  0.84761480  0.65119284  1.0
  S2-  S20  1  0.37033632  0.84830847  0.86600844  1.0
  S2-  S20  1  0.37623595  0.97049675  0.06116982  1.0
  S2-  S20  1  0.37166949  0.97725478  0.26426138  1.0
  S2-  S20  1  0.37476143  0.97776048  0.46489696  1.0
  S2-  S20  1  0.37769489  0.97470479  0.66188037  1.0
  S2-  S20  1  0.38116285  0.97808386  0.86263200  1.0
  S2-  S20  1  0.57168890  0.10127504  0.06450935  1.0
  S2-  S20  1  0.58307147  0.10168987  0.26112772  1.0
  S2-  S20  1  0.56497224  0.09984865  0.46337254  1.0
  S2-  S20  1  0.57240035  0.10234836  0.65656989  1.0
  S2-  S20  1  0.58752979  0.10030320  0.85936877  1.0
  S2-  S20  1  0.69582408  0.28279785  0.98122466  1.0
  S2-  S20  1  0.58832303  0.23036045  0.46792554  1.0
  S2-  S20  1  0.59045304  0.23491234  0.67054107  1.0
  S2-  S20  1  0.57433864  0.23039324  0.86117107  1.0
  S2-  S20  1  0.57021452  0.34754814  0.05802869  1.0
  S2-  S20  1  0.57104152  0.35386949  0.26250509  1.0
  S2-  S20  1  0.56774590  0.35178733  0.46642966  1.0
  S2-  S20  1  0.59218517  0.34621535  0.65816735  1.0
  S2-  S20  1  0.56981088  0.35320462  0.85596920  1.0
  S2-  S20  1  0.59587488  0.48097709  0.07082349  1.0
  S2-  S20  1  0.57238290  0.47491777  0.25919765  1.0
  S2-  S20  1  0.58731218  0.47151402  0.46326585  1.0
  S2-  S20  1  0.57095739  0.47568381  0.86504861  1.0
  S2-  S20  1  0.56559380  0.60114586  0.06056095  1.0
  S2-  S20  1  0.58087637  0.60171513  0.26582791  1.0
  S2-  S20  1  0.57819823  0.60324316  0.46517945  1.0
  S2-  S20  1  0.58606359  0.60377301  0.86610720  1.0
  S2-  S20  1  0.57673129  0.72291335  0.06732267  1.0
  S2-  S20  1  0.59735254  0.72587953  0.26683852  1.0
  S2-  S20  1  0.57387014  0.72470285  0.46168876  1.0
  S2-  S20  1  0.61452654  0.73225435  0.67654013  1.0
  S2-  S20  1  0.58389141  0.84905940  0.06717420  1.0
  S2-  S20  1  0.32070786  0.01051103  0.26513333  1.0
  S2-  S20  1  0.58823874  0.85746315  0.46003734  1.0
  S2-  S20  1  0.52648027  0.70007586  0.69781603  1.0
  S2-  S20  1  0.59645036  0.98198929  0.07211911  1.0
  S2-  S20  1  0.59271700  0.98150694  0.26710524  1.0
  S2-  S20  1  0.58756564  0.97703983  0.46086644  1.0
  S2-  S20  1  0.58743657  0.97769325  0.67036272  1.0
  S2-  S20  1  0.77728817  0.09957087  0.06763974  1.0
  S2-  S20  1  0.77974218  0.09947128  0.26856426  1.0
  S2-  S20  1  0.79655915  0.10808102  0.46642215  1.0
  S2-  S20  1  0.77339750  0.09850811  0.85811657  1.0
  S2-  S20  1  0.77984007  0.22927902  0.05990185  1.0
  S2-  S20  1  0.78022880  0.23258474  0.25205343  1.0
  S2-  S20  1  0.78234824  0.22284333  0.45769401  1.0
  S2-  S20  1  0.79598704  0.22728505  0.87777436  1.0
  S2-  S20  1  0.78428076  0.34908265  0.06518877  1.0
  S2-  S20  1  0.79446110  0.35375375  0.26470386  1.0
  S2-  S20  1  0.76370354  0.35100007  0.46877998  1.0
  S2-  S20  1  0.77234458  0.35070860  0.86643667  1.0
  S2-  S20  1  0.78367827  0.47277979  0.06111395  1.0
  S2-  S20  1  0.79568338  0.47713798  0.27186549  1.0
  S2-  S20  1  0.79352334  0.47402635  0.46195501  1.0
  S2-  S20  1  0.78334818  0.47203694  0.66017860  1.0
  S2-  S20  1  0.78508264  0.47502235  0.86564736  1.0
  S2-  S20  1  0.77368471  0.60005822  0.06509915  1.0
  S2-  S20  1  0.79300359  0.59973375  0.25789613  1.0
  S2-  S20  1  0.78264979  0.60357428  0.46087364  1.0
  S2-  S20  1  0.79767486  0.60157275  0.66159347  1.0
  S2-  S20  1  0.80477097  0.60618206  0.86462242  1.0
  S2-  S20  1  0.79017346  0.72491279  0.06702715  1.0
  S2-  S20  1  0.79553686  0.72310938  0.26059707  1.0
  S2-  S20  1  0.77725148  0.72791782  0.46559465  1.0
  S2-  S20  1  0.77545355  0.72156683  0.65427789  1.0
  S2-  S20  1  0.77449917  0.72887755  0.85689336  1.0
  S2-  S20  1  0.76893439  0.84835460  0.06183216  1.0
  S2-  S20  1  0.79333553  0.85255435  0.27445828  1.0
  S2-  S20  1  0.78281261  0.85174460  0.45971554  1.0
  S2-  S20  1  0.78102434  0.84935535  0.85744423  1.0
  S2-  S20  1  0.77082504  0.97632038  0.05948545  1.0
  S2-  S20  1  0.80869531  0.97773445  0.26777753  1.0
  S2-  S20  1  0.78559443  0.98704872  0.46430747  1.0
  S2-  S20  1  0.77995189  0.98031024  0.66576662  1.0
  S2-  S20  1  0.76895942  0.97714063  0.86525044  1.0
  S2-  S20  1  0.98873139  0.10420787  0.07563332  1.0
  S2-  S20  1  0.98675106  0.10464637  0.25379161  1.0
  S2-  S20  1  0.00037649  0.10226360  0.46157716  1.0
  S2-  S20  1  0.98168249  0.10421223  0.66937968  1.0
  S2-  S20  1  0.98248969  0.10401304  0.86323152  1.0
  S2-  S20  1  0.98711397  0.22772432  0.06581387  1.0
  S2-  S20  1  0.97556120  0.22792006  0.25881254  1.0
  S2-  S20  1  0.98153864  0.22498251  0.45773395  1.0
  S2-  S20  1  0.97388711  0.22637322  0.65972685  1.0
  S2-  S20  1  0.98576970  0.35231152  0.26884144  1.0
  S2-  S20  1  0.98128935  0.35264088  0.47251718  1.0
  S2-  S20  1  0.97152668  0.35023044  0.66912497  1.0
  S2-  S20  1  0.97611676  0.35634131  0.86374200  1.0
  S2-  S20  1  0.97607367  0.48000371  0.06302904  1.0
  S2-  S20  1  0.00001507  0.47731630  0.26602036  1.0
  S2-  S20  1  0.97526885  0.47657300  0.46119186  1.0
  S2-  S20  1  0.99574749  0.47799607  0.66884815  1.0
  S2-  S20  1  0.98127485  0.47571143  0.86451374  1.0
  S2-  S20  1  0.99417494  0.59863262  0.06522386  1.0
  S2-  S20  1  0.99396206  0.59939450  0.26794361  1.0
  S2-  S20  1  0.98675317  0.59783073  0.46726175  1.0
  S2-  S20  1  0.97676059  0.60322190  0.86829188  1.0
  S2-  S20  1  0.98876377  0.72204293  0.07032522  1.0
  S2-  S20  1  0.99898024  0.73048218  0.26877988  1.0
  S2-  S20  1  0.97385797  0.72351916  0.45317058  1.0
  S2-  S20  1  0.99126598  0.73048054  0.66578428  1.0
  S2-  S20  1  0.97719023  0.85227962  0.46000913  1.0
  S2-  S20  1  0.97961654  0.84977608  0.66501719  1.0
  S2-  S20  1  0.99555521  0.85370996  0.86544674  1.0
  S2-  S20  1  0.99149292  0.97711328  0.06913057  1.0
  S2-  S20  1  0.97365086  0.97539906  0.25705377  1.0
  S2-  S20  1  0.98393372  0.97867031  0.46454417  1.0
  S2-  S20  1  0.95729916  0.97569981  0.65445114  1.0
  S2-  S21  1  0.04227521  0.06963077  0.05826219  1.0
  S2-  S21  1  0.04682500  0.06249828  0.26133885  1.0
  S2-  S21  1  0.03928775  0.06654724  0.46267304  1.0
  S2-  S21  1  0.04990596  0.06423847  0.66742547  1.0
  S2-  S21  1  0.04749548  0.18896947  0.06344665  1.0
  S2-  S21  1  0.02378857  0.18837220  0.25705464  1.0
  S2-  S21  1  0.91931326  0.97679675  0.67031085  1.0
  S2-  S21  1  0.88388366  0.04128064  0.07704993  1.0
  S2-  S21  1  0.06021189  0.31042634  0.45519217  1.0
  S2-  S21  1  0.22320356  0.21104999  0.49603477  1.0
  S2-  S21  1  0.15835973  0.43780984  0.85637230  1.0
  S2-  S21  1  0.03517699  0.43786940  0.25831987  1.0
  S2-  S21  1  0.04970775  0.43346289  0.45269130  1.0
  S2-  S21  1  0.93811488  0.43930302  0.45776750  1.0
  S2-  S21  1  0.92933988  0.27500475  0.99352395  1.0
  S2-  S21  1  0.18859540  0.81083774  0.10034557  1.0
  S2-  S21  1  0.02976837  0.68942547  0.25691886  1.0
  S2-  S21  1  0.21816606  0.91817711  0.26820622  1.0
  S2-  S21  1  0.99662484  0.88636950  0.78590344  1.0
  S2-  S21  1  0.02657443  0.69116170  0.86041221  1.0
  S2-  S21  1  0.05978597  0.81093846  0.26456433  1.0
  S2-  S21  1  0.04172144  0.81693877  0.47206081  1.0
  S2-  S21  1  0.88257821  0.71696507  0.41461091  1.0
  S2-  S21  1  0.24170632  0.01300444  0.94706993  1.0
  S2-  S21  1  0.78490305  0.06681365  0.87276917  1.0
  S2-  S21  1  0.20149179  0.16555237  0.17395601  1.0
  S2-  S21  1  0.24140974  0.05891550  0.25917144  1.0
  S2-  S21  1  0.25364634  0.06331929  0.86487668  1.0
  S2-  S21  1  0.12656971  0.27202445  0.28207998  1.0
  S2-  S21  1  0.26416208  0.34325489  0.14444873  1.0
  S2-  S21  1  0.26438907  0.18822335  0.45765198  1.0
  S2-  S21  1  0.24423961  0.18454945  0.85386113  1.0
  S2-  S21  1  0.22821835  0.30969469  0.05798851  1.0
  S2-  S21  1  0.24402485  0.31519997  0.24719936  1.0
  S2-  S21  1  0.09492221  0.56126921  0.29907860  1.0
  S2-  S21  1  0.24173237  0.31350370  0.65989464  1.0
  S2-  S21  1  0.23493905  0.31145688  0.85746632  1.0
  S2-  S21  1  0.24605350  0.43803740  0.05602790  1.0
  S2-  S21  1  0.23398312  0.43942274  0.26261337  1.0
  S2-  S21  1  0.10915473  0.62339900  0.49139105  1.0
  S2-  S21  1  0.24233787  0.43542606  0.65757996  1.0
  S2-  S21  1  0.24395562  0.43956543  0.86446589  1.0
  S2-  S21  1  0.25652167  0.56706242  0.06336370  1.0
  S2-  S21  1  0.22202160  0.56077205  0.26257683  1.0
  S2-  S21  1  0.24901126  0.56986397  0.46155921  1.0
  S2-  S21  1  0.26381685  0.56275496  0.65965550  1.0
  S2-  S21  1  0.32979779  0.45121222  0.83200595  1.0
  S2-  S21  1  0.43663609  0.86843915  0.07496101  1.0
  S2-  S21  1  0.24513278  0.69337074  0.46423950  1.0
  S2-  S21  1  0.23270856  0.68620143  0.65893498  1.0
  S2-  S21  1  0.23711944  0.68928794  0.85677016  1.0
  S2-  S21  1  0.23421202  0.81661067  0.06345859  1.0
  S2-  S21  1  0.22087684  0.81166132  0.26114281  1.0
  S2-  S21  1  0.23729495  0.81086659  0.45650761  1.0
  S2-  S21  1  0.24130414  0.81217405  0.65839686  1.0
  S2-  S21  1  0.23644734  0.93468899  0.25194334  1.0
  S2-  S21  1  0.15361318  0.12657633  0.41841675  1.0
  S2-  S21  1  0.22670617  0.93286770  0.65092996  1.0
  S2-  S21  1  0.25376866  0.93673877  0.85899262  1.0
  S2-  S21  1  0.43457828  0.06462432  0.05860829  1.0
  S2-  S21  1  0.52418053  0.25805781  0.13722241  1.0
  S2-  S21  1  0.43953988  0.05872161  0.46274373  1.0
  S2-  S21  1  0.42743962  0.05550453  0.66124441  1.0
  S2-  S21  1  0.44108432  0.06417677  0.86763969  1.0
  S2-  S21  1  0.28996569  0.25821245  0.17796693  1.0
  S2-  S21  1  0.50505951  0.10884642  0.56443259  1.0
  S2-  S21  1  0.43646275  0.30925300  0.06012958  1.0
  S2-  S21  1  0.42921009  0.31074671  0.65255925  1.0
  S2-  S21  1  0.38410397  0.06664803  0.06957028  1.0
  S2-  S21  1  0.43908410  0.43705392  0.05532100  1.0
  S2-  S21  1  0.43227714  0.43258898  0.25224987  1.0
  S2-  S21  1  0.43945986  0.43871983  0.46013318  1.0
  S2-  S21  1  0.42984006  0.56415497  0.05900397  1.0
  S2-  S21  1  0.45047328  0.55788635  0.25713776  1.0
  S2-  S21  1  0.65011973  0.74929317  0.25528999  1.0
  S2-  S21  1  0.43505767  0.56531923  0.65225060  1.0
  S2-  S21  1  0.43471003  0.68490285  0.25315388  1.0
  S2-  S21  1  0.44393154  0.68647075  0.45985538  1.0
  S2-  S21  1  0.43095011  0.69046633  0.86018720  1.0
  S2-  S21  1  0.45183752  0.81143273  0.06176704  1.0
  S2-  S21  1  0.30762317  0.94555122  0.38238390  1.0
  S2-  S21  1  0.38395636  0.93806957  0.79651535  1.0
  S2-  S21  1  0.44063518  0.94263057  0.05838889  1.0
  S2-  S21  1  0.54598470  0.05932231  0.26278483  1.0
  S2-  S21  1  0.43965355  0.93683774  0.45116267  1.0
  S2-  S21  1  0.43582255  0.93552024  0.66564305  1.0
  S2-  S21  1  0.63941747  0.06081459  0.05489667  1.0
  S2-  S21  1  0.39708289  0.05616400  0.32807863  1.0
  S2-  S21  1  0.64686341  0.19486713  0.06304719  1.0
  S2-  S21  1  0.89012421  0.30393680  0.45983319  1.0
  S2-  S21  1  0.70145157  0.19536477  0.56737534  1.0
  S2-  S21  1  0.64717481  0.19148071  0.85824886  1.0
  S2-  S21  1  0.63917965  0.30921278  0.05494719  1.0
  S2-  S21  1  0.49933911  0.51179594  0.07368974  1.0
  S2-  S21  1  0.42357130  0.20891433  0.98121819  1.0
  S2-  S21  1  0.37809398  0.54669222  0.11695562  1.0
  S2-  S21  1  0.64343127  0.44059419  0.25347177  1.0
  S2-  S21  1  0.63377329  0.43256864  0.45698625  1.0
  S2-  S21  1  0.62625874  0.43696621  0.85794417  1.0
  S2-  S21  1  0.62982401  0.55538323  0.06209215  1.0
  S2-  S21  1  0.63079324  0.55751097  0.25895582  1.0
  S2-  S21  1  0.64778087  0.56177441  0.66661130  1.0
  S2-  S21  1  0.63391577  0.68833270  0.06091610  1.0
  S2-  S21  1  0.53865096  0.84901663  0.30663805  1.0
  S2-  S21  1  0.65386001  0.68922564  0.65742188  1.0
  S2-  S21  1  0.60324548  0.77084442  0.76310098  1.0
  S2-  S21  1  0.73897905  0.88708130  0.44101055  1.0
  S2-  S21  1  0.58328920  0.98783175  0.91121010  1.0
  S2-  S21  1  0.64441320  0.94202051  0.05716327  1.0
  S2-  S21  1  0.63104230  0.93498944  0.25317820  1.0
  S2-  S21  1  0.49196607  0.91074664  0.41895584  1.0
  S2-  S21  1  0.83285868  0.06499033  0.76319674  1.0
  S2-  S21  1  0.85435161  0.05972538  0.04962275  1.0
  S2-  S21  1  0.84672079  0.07191954  0.45889049  1.0
  S2-  S21  1  0.83872234  0.05553136  0.66390342  1.0
  S2-  S21  1  0.81459323  0.05496195  0.85274532  1.0
  S2-  S21  1  0.84634862  0.19238845  0.06588480  1.0
  S2-  S21  1  0.91049488  0.95818166  0.38376204  1.0
  S2-  S21  1  0.02879057  0.12667416  0.46325219  1.0
  S2-  S21  1  0.83169090  0.18667439  0.65618863  1.0
  S2-  S21  1  0.83283520  0.18636609  0.85429926  1.0
  S2-  S21  1  0.84017640  0.31084737  0.06004584  1.0
  S2-  S21  1  0.01012651  0.23164005  0.26816682  1.0
  S2-  S21  1  0.84415934  0.30999246  0.46226180  1.0
  S2-  S21  1  0.99686961  0.35495513  0.66360225  1.0
  S2-  S21  1  0.93660928  0.68389214  0.85575779  1.0
  S2-  S21  1  0.82895298  0.43698316  0.65571563  1.0
  S2-  S21  1  0.84425114  0.43797449  0.86840160  1.0
  S2-  S21  1  0.92934618  0.38612779  0.15248227  1.0
  S2-  S21  1  0.84149005  0.56586851  0.66330873  1.0
  S2-  S21  1  0.85959303  0.55809427  0.85161441  1.0
  S2-  S21  1  0.83014536  0.68832334  0.05331126  1.0
  S2-  S21  1  0.81660723  0.68474537  0.45654384  1.0
  S2-  S21  1  0.62938377  0.64028593  0.63407428  1.0
  S2-  S21  1  0.79892588  0.81122512  0.70015880  1.0
  S2-  S21  1  0.84856450  0.81792950  0.26564184  1.0
  S2-  S21  1  0.83846533  0.81475854  0.46325331  1.0
  S2-  S21  1  0.86066149  0.81224743  0.66064606  1.0
  S2-  S21  1  0.84763109  0.93124232  0.25570237  1.0
  S2-  S21  1  0.85093587  0.94117503  0.45134684  1.0
  S2-  S21  1  0.81966208  0.92963074  0.85683152  1.0
  S2-  S22  1  0.06720448  0.89308360  0.19016283  1.0
  S2-  S22  1  0.30805277  0.27449091  0.90226869  1.0
  S2-  S22  1  0.06200172  0.42910726  0.93566762  1.0
  S2-  S22  1  0.15456383  0.19998774  0.28520523  1.0
  S2-  S22  1  0.16216118  0.19942039  0.48109374  1.0
  S2-  S22  1  0.15489176  0.19847131  0.68037889  1.0
  S2-  S22  1  0.89883486  0.22621586  0.76434544  1.0
  S2-  S22  1  0.17023652  0.32554767  0.39296641  1.0
  S2-  S22  1  0.92636977  0.15834610  0.61518448  1.0
  S2-  S22  1  0.15525907  0.32671414  0.89276893  1.0
  S2-  S22  1  0.16642135  0.45790042  0.09151251  1.0
  S2-  S22  1  0.96961247  0.23657526  0.68554836  1.0
  S2-  S22  1  0.15599790  0.44652002  0.88833620  1.0
  S2-  S22  1  0.32224337  0.37212042  0.10097097  1.0
  S2-  S22  1  0.14483948  0.57799078  0.28967929  1.0
  S2-  S22  1  0.93711367  0.69625847  0.77215976  1.0
  S2-  S22  1  0.16924599  0.57280341  0.88579691  1.0
  S2-  S22  1  0.15304613  0.70185747  0.08680867  1.0
  S2-  S22  1  0.19216312  0.71241804  0.20561835  1.0
  S2-  S22  1  0.96900265  0.82101468  0.80982756  1.0
  S2-  S22  1  0.15032572  0.70620371  0.89749411  1.0
  S2-  S22  1  0.15527301  0.82530620  0.08677733  1.0
  S2-  S22  1  0.15900821  0.62668510  0.51260655  1.0
  S2-  S22  1  0.28221966  0.01788368  0.44646434  1.0
  S2-  S22  1  0.15029181  0.82613082  0.68293442  1.0
  S2-  S22  1  0.05719041  0.74982911  0.73078341  1.0
  S2-  S22  1  0.03491923  0.82739347  0.88333113  1.0
  S2-  S22  1  0.28883493  0.90308218  0.30954359  1.0
  S2-  S22  1  0.17556704  0.95136516  0.88329525  1.0
  S2-  S22  1  0.35947947  0.07746006  0.09229670  1.0
  S2-  S22  1  0.15581916  0.88621059  0.18103720  1.0
  S2-  S22  1  0.19264628  0.93925419  0.27148304  1.0
  S2-  S22  1  0.35849642  0.07610068  0.69017902  1.0
  S2-  S22  1  0.37044335  0.20030894  0.28813364  1.0
  S2-  S22  1  0.21807277  0.20706420  0.31289659  1.0
  S2-  S22  1  0.37123641  0.32923697  0.49123800  1.0
  S2-  S22  1  0.38616560  0.13026931  0.77114233  1.0
  S2-  S22  1  0.59127764  0.54835113  0.11279990  1.0
  S2-  S22  1  0.58624252  0.20692025  0.84857745  1.0
  S2-  S22  1  0.16290708  0.51200576  0.09444698  1.0
  S2-  S22  1  0.35732201  0.57631467  0.08012771  1.0
  S2-  S22  1  0.42851425  0.59536845  0.17088177  1.0
  S2-  S22  1  0.19237731  0.39225138  0.24908679  1.0
  S2-  S22  1  0.50802294  0.50169829  0.99541565  1.0
  S2-  S22  1  0.26020311  0.74744510  0.33206977  1.0
  S2-  S22  1  0.48778957  0.58986824  0.83287601  1.0
  S2-  S22  1  0.60086668  0.94326378  0.20215437  1.0
  S2-  S22  1  0.41750059  0.80320024  0.67412988  1.0
  S2-  S22  1  0.34587982  0.95084052  0.68032428  1.0
  S2-  S22  1  0.59953453  0.18880449  0.29386816  1.0
  S2-  S22  1  0.54955408  0.07334192  0.27986632  1.0
  S2-  S22  1  0.68687640  0.20341536  0.85437200  1.0
  S2-  S22  1  0.55045563  0.20200884  0.08826500  1.0
  S2-  S22  1  0.53965060  0.19888944  0.28304464  1.0
  S2-  S22  1  0.45963009  0.25561853  0.61840367  1.0
  S2-  S22  1  0.55862184  0.20199153  0.68441891  1.0
  S2-  S22  1  0.56679972  0.33185356  0.09298019  1.0
  S2-  S22  1  0.56628601  0.32458783  0.29132404  1.0
  S2-  S22  1  0.56704328  0.45133908  0.28751982  1.0
  S2-  S22  1  0.58498950  0.56239439  0.70090768  1.0
  S2-  S22  1  0.55730180  0.20965314  0.77201450  1.0
  S2-  S22  1  0.49811210  0.49560597  0.59787238  1.0
  S2-  S22  1  0.56319091  0.57984765  0.88685732  1.0
  S2-  S22  1  0.51353624  0.76812542  0.24865779  1.0
  S2-  S22  1  0.54944039  0.69690942  0.28294588  1.0
  S2-  S22  1  0.37306205  0.67384693  0.27868914  1.0
  S2-  S22  1  0.54666687  0.70207264  0.68783975  1.0
  S2-  S22  1  0.54342831  0.69226280  0.87533972  1.0
  S2-  S22  1  0.37117085  0.80518045  0.33245004  1.0
  S2-  S22  1  0.56075859  0.82453982  0.29290873  1.0
  S2-  S22  1  0.79360060  0.68469325  0.60352071  1.0
  S2-  S22  1  0.55331701  0.82202177  0.68646891  1.0
  S2-  S22  1  0.54969536  0.82180175  0.88416558  1.0
  S2-  S22  1  0.69165253  0.87614626  0.06419568  1.0
  S2-  S22  1  0.63989930  0.01732398  0.52107171  1.0
  S2-  S22  1  0.67055587  0.93662347  0.73974076  1.0
  S2-  S22  1  0.54864137  0.95251760  0.88182150  1.0
  S2-  S22  1  0.76613736  0.07624866  0.68781563  1.0
  S2-  S22  1  0.89810864  0.25260387  0.90028434  1.0
  S2-  S22  1  0.73181723  0.19494813  0.87477226  1.0
  S2-  S22  1  0.61049431  0.12780544  0.30408332  1.0
  S2-  S22  1  0.76382308  0.33025474  0.69100389  1.0
  S2-  S22  1  0.76252257  0.32550358  0.88477338  1.0
  S2-  S22  1  0.75977244  0.45722657  0.08471661  1.0
  S2-  S22  1  0.75461639  0.44559666  0.28081076  1.0
  S2-  S22  1  0.83723896  0.49007718  0.57553282  1.0
  S2-  S22  1  0.77774671  0.45172948  0.69526001  1.0
  S2-  S22  1  0.89331975  0.27988531  0.80705296  1.0
  S2-  S22  1  0.83476116  0.53761313  0.32734071  1.0
  S2-  S22  1  0.55533073  0.57507628  0.48515926  1.0
  S2-  S22  1  0.69937054  0.68363379  0.29721383  1.0
  S2-  S22  1  0.95667011  0.77395322  0.04714918  1.0
  S2-  S22  1  0.55565017  0.93360786  0.44417879  1.0
  S2-  S22  1  0.75163421  0.69702100  0.48516460  1.0
  S2-  S22  1  0.55800911  0.82248314  0.77685700  1.0
  S2-  S22  1  0.97784794  0.67408582  0.20809369  1.0
  S2-  S22  1  0.90491458  0.64463609  0.45456808  1.0
  S2-  S22  1  0.64446874  0.99740079  0.44214994  1.0
  S2-  S22  1  0.76274739  0.82339376  0.68532585  1.0
  S2-  S22  1  0.76508095  0.95506079  0.08609042  1.0
  S2-  S22  1  0.95885406  0.24494816  0.03315196  1.0
  S2-  S22  1  0.80871718  0.00085540  0.39479244  1.0
  S2-  S22  1  0.93595960  0.07276752  0.46944160  1.0
  S2-  S22  1  0.99831828  0.15299818  0.60201297  1.0
  S2-  S22  1  0.87106814  0.37038319  0.22693039  1.0
  S2-  S22  1  0.96653937  0.20501612  0.28891491  1.0
  S2-  S22  1  0.16722291  0.36082374  0.77735481  1.0
  S2-  S22  1  0.95483155  0.32263128  0.08466945  1.0
  S2-  S22  1  0.95949669  0.32726963  0.29014288  1.0
  S2-  S22  1  0.78375863  0.08125965  0.55756604  1.0
  S2-  S22  1  0.95011478  0.33122974  0.68367511  1.0
  S2-  S22  1  0.09961225  0.54639779  0.71178428  1.0
  S2-  S22  1  0.18638942  0.20099228  0.25232815  1.0
  S2-  S22  1  0.96526495  0.45231454  0.48646454  1.0
  S2-  S22  1  0.05261076  0.51662318  0.68856616  1.0
  S2-  S22  1  0.94931717  0.57623827  0.27786818  1.0
  S2-  S22  1  0.92345209  0.45678517  0.61285448  1.0
  S2-  S22  1  0.96580980  0.57819069  0.68992289  1.0
  S2-  S22  1  0.01126403  0.59408583  0.71036586  1.0
  S2-  S22  1  0.95893702  0.69970255  0.88309829  1.0
  S2-  S22  1  0.10580831  0.00599977  0.46835445  1.0
  S2-  S22  1  0.78247898  0.76576407  0.25796528  1.0
  S2-  S22  1  0.96475395  0.82565040  0.68924170  1.0
  S2-  S22  1  0.95877819  0.82270598  0.87966000  1.0
  S2-  S22  1  0.96400903  0.75198767  0.41215031  1.0
  S2-  S22  1  0.94968186  0.95125932  0.68465069  1.0
  S2-  S23  1  0.08694065  0.01243198  0.10488035  1.0
  S2-  S23  1  0.09863622  0.02316635  0.31028264  1.0
  S2-  S23  1  0.08993537  0.01787756  0.50460130  1.0
  S2-  S23  1  0.09441176  0.02282776  0.70835198  1.0
  S2-  S23  1  0.09108567  0.02138164  0.90680565  1.0
  S2-  S23  1  0.10504891  0.15063016  0.11079520  1.0
  S2-  S23  1  0.09346210  0.14447743  0.30294934  1.0
  S2-  S23  1  0.07161503  0.13453410  0.49245963  1.0
  S2-  S23  1  0.08612505  0.14397035  0.70477471  1.0
  S2-  S23  1  0.07841903  0.14249061  0.89101518  1.0
  S2-  S23  1  0.09074117  0.26707373  0.09884290  1.0
  S2-  S23  1  0.09168766  0.26709038  0.30414975  1.0
  S2-  S23  1  0.07670081  0.26990023  0.49909352  1.0
  S2-  S23  1  0.09084293  0.27489900  0.89823140  1.0
  S2-  S23  1  0.10012870  0.39197282  0.10737333  1.0
  S2-  S23  1  0.10078154  0.39637294  0.29967232  1.0
  S2-  S23  1  0.09947267  0.40331634  0.50867003  1.0
  S2-  S23  1  0.08718166  0.39432649  0.70534534  1.0
  S2-  S23  1  0.08881482  0.39589723  0.90245969  1.0
  S2-  S23  1  0.08568361  0.52754183  0.10621032  1.0
  S2-  S23  1  0.12201661  0.52135485  0.31070291  1.0
  S2-  S23  1  0.08387207  0.51803538  0.50055009  1.0
  S2-  S23  1  0.07762500  0.51695357  0.70912333  1.0
  S2-  S23  1  0.10143219  0.52485499  0.91250895  1.0
  S2-  S23  1  0.07801637  0.63994792  0.09757990  1.0
  S2-  S23  1  0.09327252  0.64870104  0.30543821  1.0
  S2-  S23  1  0.11703682  0.64355802  0.50875120  1.0
  S2-  S23  1  0.08409303  0.64629409  0.70289890  1.0
  S2-  S23  1  0.08439634  0.64295113  0.90262548  1.0
  S2-  S23  1  0.09410744  0.76678925  0.30225178  1.0
  S2-  S23  1  0.09584013  0.77219616  0.51409014  1.0
  S2-  S23  1  0.08936608  0.76840322  0.70046266  1.0
  S2-  S23  1  0.08103605  0.76789508  0.90253696  1.0
  S2-  S23  1  0.09555661  0.89765812  0.10860696  1.0
  S2-  S23  1  0.09914717  0.89278765  0.31128449  1.0
  S2-  S23  1  0.08360185  0.89610380  0.50242399  1.0
  S2-  S23  1  0.09065107  0.89716159  0.69784930  1.0
  S2-  S23  1  0.08284409  0.89741249  0.90387598  1.0
  S2-  S23  1  0.28275609  0.01631353  0.09977312  1.0
  S2-  S23  1  0.29383885  0.01813153  0.30955198  1.0
  S2-  S23  1  0.29845077  0.01882754  0.50114116  1.0
  S2-  S23  1  0.25788334  0.01645728  0.69278804  1.0
  S2-  S23  1  0.27441738  0.01985180  0.90317288  1.0
  S2-  S23  1  0.30710302  0.14518596  0.09596812  1.0
  S2-  S23  1  0.28324059  0.14696029  0.30332951  1.0
  S2-  S23  1  0.29574740  0.14329369  0.50884423  1.0
  S2-  S23  1  0.29209702  0.14585446  0.70490874  1.0
  S2-  S23  1  0.28099127  0.14478262  0.90380530  1.0
  S2-  S23  1  0.27507892  0.27022870  0.10770334  1.0
  S2-  S23  1  0.29737601  0.27442812  0.30844492  1.0
  S2-  S23  1  0.28230596  0.27254794  0.49848736  1.0
  S2-  S23  1  0.28586303  0.26906905  0.69941898  1.0
  S2-  S23  1  0.31229816  0.26973221  0.91454261  1.0
  S2-  S23  1  0.29149736  0.38947029  0.09857424  1.0
  S2-  S23  1  0.28735335  0.39385442  0.30140098  1.0
  S2-  S23  1  0.29565702  0.39616067  0.50801957  1.0
  S2-  S23  1  0.30255895  0.39343152  0.70950914  1.0
  S2-  S23  1  0.30671938  0.39918878  0.89913689  1.0
  S2-  S23  1  0.30474891  0.51789371  0.09551399  1.0
  S2-  S23  1  0.30807792  0.52164343  0.30903168  1.0
  S2-  S23  1  0.28605403  0.52056298  0.50270806  1.0
  S2-  S23  1  0.28264617  0.52004410  0.70326478  1.0
  S2-  S23  1  0.27579247  0.52015055  0.89353291  1.0
  S2-  S23  1  0.30763153  0.64463459  0.10031930  1.0
  S2-  S23  1  0.29159662  0.64253400  0.30241261  1.0
  S2-  S23  1  0.29018179  0.64165350  0.51119825  1.0
  S2-  S23  1  0.30755927  0.64325552  0.69940512  1.0
  S2-  S23  1  0.28203273  0.64341499  0.90713552  1.0
  S2-  S23  1  0.28007559  0.76618073  0.10106543  1.0
  S2-  S23  1  0.27725179  0.77345206  0.30658475  1.0
  S2-  S23  1  0.28129179  0.76836879  0.50294934  1.0
  S2-  S23  1  0.27535029  0.76739965  0.69956042  1.0
  S2-  S23  1  0.27423569  0.76848744  0.89594077  1.0
  S2-  S23  1  0.30176839  0.89365344  0.09976866  1.0
  S2-  S23  1  0.29357197  0.89291951  0.29774220  1.0
  S2-  S23  1  0.29664607  0.89391530  0.50777232  1.0
  S2-  S23  1  0.28905108  0.89539047  0.70629432  1.0
  S2-  S23  1  0.27995025  0.89232686  0.90680916  1.0
  S2-  S23  1  0.49436309  0.01974900  0.10769582  1.0
  S2-  S23  1  0.49711857  0.02304541  0.30041217  1.0
  S2-  S23  1  0.49167150  0.02365363  0.51343151  1.0
  S2-  S23  1  0.48394969  0.02048819  0.70318256  1.0
  S2-  S23  1  0.47549808  0.01903134  0.89395185  1.0
  S2-  S23  1  0.48390436  0.14158395  0.10202026  1.0
  S2-  S23  1  0.48469636  0.14390658  0.30977347  1.0
  S2-  S23  1  0.49534409  0.15109436  0.50919343  1.0
  S2-  S23  1  0.49422988  0.14213345  0.69937645  1.0
  S2-  S23  1  0.49274254  0.14892519  0.90402507  1.0
  S2-  S23  1  0.47576150  0.27126705  0.10282994  1.0
  S2-  S23  1  0.48214498  0.26875249  0.29792911  1.0
  S2-  S23  1  0.49808581  0.27004519  0.50563503  1.0
  S2-  S23  1  0.48501895  0.27477414  0.70714780  1.0
  S2-  S23  1  0.46887684  0.27146921  0.90058461  1.0
  S2-  S23  1  0.49025348  0.39820974  0.10553526  1.0
  S2-  S23  1  0.50620425  0.39531348  0.30334489  1.0
  S2-  S23  1  0.46848504  0.39262802  0.49842572  1.0
  S2-  S23  1  0.50199063  0.39346717  0.71196152  1.0
  S2-  S23  1  0.47494685  0.39244996  0.90594114  1.0
  S2-  S23  1  0.48628160  0.52355392  0.10091419  1.0
  S2-  S23  1  0.48355378  0.52206232  0.49995388  1.0
  S2-  S23  1  0.48729023  0.52125657  0.70264538  1.0
  S2-  S23  1  0.47943666  0.51603213  0.90730198  1.0
  S2-  S23  1  0.50613953  0.64604315  0.30479720  1.0
  S2-  S23  1  0.48961957  0.64768306  0.50967602  1.0
  S2-  S23  1  0.48675325  0.64847363  0.70775386  1.0
  S2-  S23  1  0.49436379  0.63974543  0.89954747  1.0
  S2-  S23  1  0.48561762  0.76843978  0.11137818  1.0
  S2-  S23  1  0.48616814  0.77149664  0.30455151  1.0
  S2-  S23  1  0.48370253  0.76765812  0.51144047  1.0
  S2-  S23  1  0.48930867  0.77282457  0.70477765  1.0
  S2-  S23  1  0.48456159  0.77032228  0.90454031  1.0
  S2-  S23  1  0.48173985  0.89247555  0.10364958  1.0
  S2-  S23  1  0.48793320  0.89284264  0.29783678  1.0
  S2-  S23  1  0.48632056  0.88871390  0.49888386  1.0
  S2-  S23  1  0.49554823  0.90063600  0.70693356  1.0
  S2-  S23  1  0.48668049  0.89589713  0.90020698  1.0
  S2-  S23  1  0.68670733  0.02006468  0.10618412  1.0
  S2-  S23  1  0.68207028  0.01995046  0.29413895  1.0
  S2-  S23  1  0.69323591  0.01921762  0.51246628  1.0
  S2-  S23  1  0.68960832  0.01714170  0.69695773  1.0
  S2-  S23  1  0.70098254  0.02582763  0.91465267  1.0
  S2-  S23  1  0.67733790  0.14563210  0.10773911  1.0
  S2-  S23  1  0.67864941  0.14835218  0.30052893  1.0
  S2-  S23  1  0.68751068  0.14587128  0.50873986  1.0
  S2-  S23  1  0.70307280  0.14391598  0.70225553  1.0
  S2-  S23  1  0.68577560  0.14751150  0.90898245  1.0
  S2-  S23  1  0.70040349  0.27214810  0.10665803  1.0
  S2-  S23  1  0.81977245  0.35980675  0.49834024  1.0
  S2-  S23  1  0.68996446  0.26842604  0.50799629  1.0
  S2-  S23  1  0.68319082  0.27044427  0.69711235  1.0
  S2-  S23  1  0.67942694  0.27003143  0.89905836  1.0
  S2-  S23  1  0.69028576  0.39892583  0.10487196  1.0
  S2-  S23  1  0.69534659  0.39242307  0.50552588  1.0
  S2-  S23  1  0.67804872  0.39415454  0.70456787  1.0
  S2-  S23  1  0.69185591  0.39804215  0.90837933  1.0
  S2-  S23  1  0.68975550  0.52419872  0.10759828  1.0
  S2-  S23  1  0.68682250  0.52044450  0.30382928  1.0
  S2-  S23  1  0.69036934  0.51950682  0.50511931  1.0
  S2-  S23  1  0.69799896  0.52135697  0.70696853  1.0
  S2-  S23  1  0.68504124  0.51707944  0.89623645  1.0
  S2-  S23  1  0.68044392  0.64360594  0.10970326  1.0
  S2-  S23  1  0.69943757  0.64303421  0.30581708  1.0
  S2-  S23  1  0.68885880  0.64573874  0.50117539  1.0
  S2-  S23  1  0.71695135  0.65104961  0.70814596  1.0
  S2-  S23  1  0.68572946  0.64798727  0.89876457  1.0
  S2-  S23  1  0.69762586  0.77037829  0.09781379  1.0
  S2-  S23  1  0.68524769  0.76783059  0.30273258  1.0
  S2-  S23  1  0.68518504  0.76557528  0.49929727  1.0
  S2-  S23  1  0.69685275  0.77240493  0.70376677  1.0
  S2-  S23  1  0.69419277  0.77083784  0.90418142  1.0
  S2-  S23  1  0.69054972  0.89195186  0.10215710  1.0
  S2-  S23  1  0.67263599  0.89479261  0.50820984  1.0
  S2-  S23  1  0.68973192  0.89929033  0.70413650  1.0
  S2-  S23  1  0.68005050  0.89713910  0.90563200  1.0
  S2-  S23  1  0.90888194  0.01677546  0.10585329  1.0
  S2-  S23  1  0.89599858  0.02342007  0.30838241  1.0
  S2-  S23  1  0.88259737  0.01647616  0.50265568  1.0
  S2-  S23  1  0.89449625  0.02202829  0.70366527  1.0
  S2-  S23  1  0.88677358  0.01493336  0.89588069  1.0
  S2-  S23  1  0.89868822  0.14555560  0.10706265  1.0
  S2-  S23  1  0.88057748  0.14260329  0.29931806  1.0
  S2-  S23  1  0.89330205  0.14720603  0.50380466  1.0
  S2-  S23  1  0.87349593  0.14627698  0.70353687  1.0
  S2-  S23  1  0.89624055  0.14776233  0.90926806  1.0
  S2-  S23  1  0.90161331  0.27022566  0.09912284  1.0
  S2-  S23  1  0.90200301  0.27293145  0.30522478  1.0
  S2-  S23  1  0.90005977  0.27021218  0.51084504  1.0
  S2-  S23  1  0.91425390  0.27858216  0.71073032  1.0
  S2-  S23  1  0.90556919  0.39775368  0.11113348  1.0
  S2-  S23  1  0.89598872  0.39807086  0.49920023  1.0
  S2-  S23  1  0.88648066  0.39283800  0.69862146  1.0
  S2-  S23  1  0.87284672  0.39325141  0.89992458  1.0
  S2-  S23  1  0.89059900  0.51992859  0.10856612  1.0
  S2-  S23  1  0.87382243  0.51363049  0.30116358  1.0
  S2-  S23  1  0.88812381  0.51974902  0.49984002  1.0
  S2-  S23  1  0.89656338  0.51860248  0.69944806  1.0
  S2-  S23  1  0.90764597  0.52222448  0.90644422  1.0
  S2-  S23  1  0.86372239  0.64420136  0.10005759  1.0
  S2-  S23  1  0.89795654  0.63926212  0.30909873  1.0
  S2-  S23  1  0.88940324  0.64103097  0.70594449  1.0
  S2-  S23  1  0.88120172  0.63954943  0.89782799  1.0
  S2-  S23  1  0.89153420  0.77017111  0.50685358  1.0
  S2-  S23  1  0.89632895  0.76638649  0.70244409  1.0
  S2-  S23  1  0.87883454  0.76589613  0.90006077  1.0
  S2-  S23  1  0.89462965  0.89656932  0.10295991  1.0
  S2-  S23  1  0.87674478  0.89286687  0.29212526  1.0
  S2-  S23  1  0.87351177  0.89137326  0.50392765  1.0
  S2-  S23  1  0.90383982  0.90191377  0.70958262  1.0
  S2-  S23  1  0.88401124  0.89500817  0.90206695  1.0
  S2-  S24  1  0.10705421  0.06124733  0.02636202  1.0
  S2-  S24  1  0.11062127  0.05924427  0.22788708  1.0
  S2-  S24  1  0.11301999  0.09308672  0.29397616  1.0
  S2-  S24  1  0.12530683  0.06320474  0.62724390  1.0
  S2-  S24  1  0.09885097  0.05925992  0.82390395  1.0
  S2-  S24  1  0.10029025  0.18419924  0.02940650  1.0
  S2-  S24  1  0.11214995  0.18344103  0.22482214  1.0
  S2-  S24  1  0.11203423  0.18398643  0.42859036  1.0
  S2-  S24  1  0.09559221  0.18674250  0.62165858  1.0
  S2-  S24  1  0.11882579  0.18104715  0.82874658  1.0
  S2-  S24  1  0.10548946  0.31125406  0.02306925  1.0
  S2-  S24  1  0.12300679  0.30958085  0.22305068  1.0
  S2-  S24  1  0.12544137  0.30929038  0.42908377  1.0
  S2-  S24  1  0.11899042  0.30733581  0.62693670  1.0
  S2-  S24  1  0.11310591  0.30515738  0.82475173  1.0
  S2-  S24  1  0.11386646  0.44048772  0.23235775  1.0
  S2-  S24  1  0.11039297  0.42854684  0.42424713  1.0
  S2-  S24  1  0.10748606  0.43805274  0.62560363  1.0
  S2-  S24  1  0.10582579  0.43378011  0.82237152  1.0
  S2-  S24  1  0.09514438  0.55623834  0.02009621  1.0
  S2-  S24  1  0.13008915  0.56253400  0.23250539  1.0
  S2-  S24  1  0.12517285  0.56112077  0.42529730  1.0
  S2-  S24  1  0.10569428  0.55751111  0.62734110  1.0
  S2-  S24  1  0.10952056  0.56702101  0.82421949  1.0
  S2-  S24  1  0.12837318  0.68920972  0.03226110  1.0
  S2-  S24  1  0.12791085  0.68456404  0.22763438  1.0
  S2-  S24  1  0.11643206  0.68712849  0.41833005  1.0
  S2-  S24  1  0.11396892  0.68800287  0.62531793  1.0
  S2-  S24  1  0.13229955  0.68562153  0.83047180  1.0
  S2-  S24  1  0.12822932  0.81062611  0.03483796  1.0
  S2-  S24  1  0.11999374  0.81211206  0.22313185  1.0
  S2-  S24  1  0.12150890  0.80822645  0.42477140  1.0
  S2-  S24  1  0.12377703  0.80900799  0.62793430  1.0
  S2-  S24  1  0.11176330  0.81014204  0.82474848  1.0
  S2-  S24  1  0.10372082  0.93698181  0.02841913  1.0
  S2-  S24  1  0.10951272  0.93471543  0.22577866  1.0
  S2-  S24  1  0.11001680  0.93550598  0.42125668  1.0
  S2-  S24  1  0.10900307  0.93234662  0.82093708  1.0
  S2-  S24  1  0.30742223  0.06301933  0.02004261  1.0
  S2-  S24  1  0.31432553  0.05947635  0.23204095  1.0
  S2-  S24  1  0.31627854  0.05616024  0.42141188  1.0
  S2-  S24  1  0.31047787  0.05837537  0.82876296  1.0
  S2-  S24  1  0.31345335  0.18457346  0.03002114  1.0
  S2-  S24  1  0.29979300  0.18433811  0.22487533  1.0
  S2-  S24  1  0.30129985  0.17507930  0.42104404  1.0
  S2-  S24  1  0.31422563  0.18190189  0.61385080  1.0
  S2-  S24  1  0.30496834  0.30954041  0.02386703  1.0
  S2-  S24  1  0.29337422  0.31086673  0.22856996  1.0
  S2-  S24  1  0.32569943  0.31418866  0.42324635  1.0
  S2-  S24  1  0.31822337  0.30715863  0.62850299  1.0
  S2-  S24  1  0.30610057  0.31135201  0.83265583  1.0
  S2-  S24  1  0.31879651  0.43219628  0.01945805  1.0
  S2-  S24  1  0.32420318  0.43950703  0.23100520  1.0
  S2-  S24  1  0.30739205  0.43534055  0.42709831  1.0
  S2-  S24  1  0.30860276  0.43219953  0.62872123  1.0
  S2-  S24  1  0.33552526  0.43985626  0.82015405  1.0
  S2-  S24  1  0.32568499  0.56208962  0.02487021  1.0
  S2-  S24  1  0.12179300  0.73705103  0.20330202  1.0
  S2-  S24  1  0.30515183  0.56422262  0.43237324  1.0
  S2-  S24  1  0.31275860  0.55572699  0.62221454  1.0
  S2-  S24  1  0.32162121  0.56234902  0.82433176  1.0
  S2-  S24  1  0.30447180  0.68336827  0.02258792  1.0
  S2-  S24  1  0.30542674  0.68302249  0.42306422  1.0
  S2-  S24  1  0.31613746  0.68874908  0.61925101  1.0
  S2-  S24  1  0.32219578  0.68276686  0.83432073  1.0
  S2-  S24  1  0.32077446  0.81198897  0.02687946  1.0
  S2-  S24  1  0.33283808  0.81010419  0.23500669  1.0
  S2-  S24  1  0.30885753  0.81254095  0.43525936  1.0
  S2-  S24  1  0.30543019  0.81180609  0.62218410  1.0
  S2-  S24  1  0.32253178  0.81638065  0.82525728  1.0
  S2-  S24  1  0.31132149  0.93248263  0.02351968  1.0
  S2-  S24  1  0.31762797  0.93423162  0.23314273  1.0
  S2-  S24  1  0.31306602  0.93088810  0.82508171  1.0
  S2-  S24  1  0.52861673  0.06197292  0.02949621  1.0
  S2-  S24  1  0.50909085  0.05988758  0.22507971  1.0
  S2-  S24  1  0.48940873  0.06171621  0.42837069  1.0
  S2-  S24  1  0.50562350  0.06096217  0.62682044  1.0
  S2-  S24  1  0.52047870  0.06024425  0.82905727  1.0
  S2-  S24  1  0.49762278  0.18189632  0.02432454  1.0
  S2-  S24  1  0.50515641  0.18004900  0.22390581  1.0
  S2-  S24  1  0.50804798  0.19401772  0.41897938  1.0
  S2-  S24  1  0.50941546  0.18156403  0.62780976  1.0
  S2-  S24  1  0.51149015  0.18850704  0.83066946  1.0
  S2-  S24  1  0.49945052  0.30783203  0.42130954  1.0
  S2-  S24  1  0.51107547  0.30956333  0.62854737  1.0
  S2-  S24  1  0.51278831  0.30820603  0.82032616  1.0
  S2-  S24  1  0.50524882  0.43628017  0.02434163  1.0
  S2-  S24  1  0.53310488  0.43520321  0.42882116  1.0
  S2-  S24  1  0.49023940  0.43084034  0.61562340  1.0
  S2-  S24  1  0.50243648  0.43037014  0.81663525  1.0
  S2-  S24  1  0.51631789  0.55739983  0.02446969  1.0
  S2-  S24  1  0.52120726  0.56329111  0.22943005  1.0
  S2-  S24  1  0.51891514  0.56339108  0.42979201  1.0
  S2-  S24  1  0.51602282  0.55321399  0.62222904  1.0
  S2-  S24  1  0.51254851  0.55981956  0.82597477  1.0
  S2-  S24  1  0.51073997  0.68777700  0.02406543  1.0
  S2-  S24  1  0.51467685  0.68991328  0.23425054  1.0
  S2-  S24  1  0.51195189  0.68312699  0.41677518  1.0
  S2-  S24  1  0.51262935  0.68686127  0.62296436  1.0
  S2-  S24  1  0.51133562  0.68406767  0.81673895  1.0
  S2-  S24  1  0.51488050  0.81162291  0.02727685  1.0
  S2-  S24  1  0.52743981  0.80915433  0.22487696  1.0
  S2-  S24  1  0.53008309  0.80613161  0.42269717  1.0
  S2-  S24  1  0.51945736  0.81387372  0.63254983  1.0
  S2-  S24  1  0.50704878  0.81551206  0.82968570  1.0
  S2-  S24  1  0.50190306  0.93280637  0.02354774  1.0
  S2-  S24  1  0.53448414  0.93589683  0.23856433  1.0
  S2-  S24  1  0.51719259  0.93108741  0.43079910  1.0
  S2-  S24  1  0.50103196  0.93319800  0.62460243  1.0
  S2-  S24  1  0.51485315  0.93811759  0.82961024  1.0
  S2-  S24  1  0.71646457  0.06574452  0.02643082  1.0
  S2-  S24  1  0.70382694  0.06171491  0.22521515  1.0
  S2-  S24  1  0.71710116  0.06261128  0.42637331  1.0
  S2-  S24  1  0.73171837  0.06106817  0.62605090  1.0
  S2-  S24  1  0.71797350  0.05992523  0.82659930  1.0
  S2-  S24  1  0.69824260  0.18196631  0.02741378  1.0
  S2-  S24  1  0.69966951  0.18480491  0.22545336  1.0
  S2-  S24  1  0.72495505  0.18363446  0.42983657  1.0
  S2-  S24  1  0.70438089  0.17809422  0.62145373  1.0
  S2-  S24  1  0.74840144  0.26811760  0.74106231  1.0
  S2-  S24  1  0.71074752  0.31412091  0.02565414  1.0
  S2-  S24  1  0.69602075  0.31272007  0.22900716  1.0
  S2-  S24  1  0.71896107  0.30819728  0.42534938  1.0
  S2-  S24  1  0.72065406  0.31334750  0.63038588  1.0
  S2-  S24  1  0.71781871  0.30781633  0.81419281  1.0
  S2-  S24  1  0.71992699  0.43211886  0.02413072  1.0
  S2-  S24  1  0.72049881  0.43529103  0.42985384  1.0
  S2-  S24  1  0.73855515  0.43700260  0.62596351  1.0
  S2-  S24  1  0.70003061  0.56241078  0.02558599  1.0
  S2-  S24  1  0.70227292  0.56404917  0.22966986  1.0
  S2-  S24  1  0.71904162  0.56733559  0.43457859  1.0
  S2-  S24  1  0.70062688  0.56221070  0.62652753  1.0
  S2-  S24  1  0.73417192  0.56327925  0.83181597  1.0
  S2-  S24  1  0.71292731  0.68132813  0.02133841  1.0
  S2-  S24  1  0.71017340  0.68073046  0.22537301  1.0
  S2-  S24  1  0.70372505  0.68392177  0.62731651  1.0
  S2-  S24  1  0.70827474  0.68673509  0.82650624  1.0
  S2-  S24  1  0.70454217  0.81307839  0.03045220  1.0
  S2-  S24  1  0.72813346  0.81642531  0.22839242  1.0
  S2-  S24  1  0.69087440  0.80806138  0.42661172  1.0
  S2-  S24  1  0.70718148  0.80562277  0.61479713  1.0
  S2-  S24  1  0.72841590  0.81218870  0.82599060  1.0
  S2-  S24  1  0.67397224  0.83976639  0.95662112  1.0
  S2-  S24  1  0.72153434  0.93692673  0.23148025  1.0
  S2-  S24  1  0.72886590  0.93203178  0.42431819  1.0
  S2-  S24  1  0.71366824  0.93707693  0.63401222  1.0
  S2-  S24  1  0.71842006  0.93724301  0.83042802  1.0
  S2-  S24  1  0.91129630  0.05884691  0.02513587  1.0
  S2-  S24  1  0.90385422  0.05812631  0.22532797  1.0
  S2-  S24  1  0.91333085  0.06622645  0.42924351  1.0
  S2-  S24  1  0.92204451  0.05614351  0.61896756  1.0
  S2-  S24  1  0.91416385  0.06325897  0.82490356  1.0
  S2-  S24  1  0.91446680  0.18846495  0.02551994  1.0
  S2-  S24  1  0.90700721  0.18751420  0.21987415  1.0
  S2-  S24  1  0.90898844  0.18557668  0.42785132  1.0
  S2-  S24  1  0.92360558  0.18839557  0.62693757  1.0
  S2-  S24  1  0.92348178  0.18685465  0.83103189  1.0
  S2-  S24  1  0.90855895  0.31250212  0.02563470  1.0
  S2-  S24  1  0.91335030  0.31074256  0.23593004  1.0
  S2-  S24  1  0.90693308  0.31408259  0.43356272  1.0
  S2-  S24  1  0.91892841  0.43345779  0.03350131  1.0
  S2-  S24  1  0.91118444  0.43744482  0.22706526  1.0
  S2-  S24  1  0.91037757  0.43698684  0.43507904  1.0
  S2-  S24  1  0.93305987  0.44293952  0.62833083  1.0
  S2-  S24  1  0.90932132  0.43120646  0.82065057  1.0
  S2-  S24  1  0.90915908  0.55913093  0.02012758  1.0
  S2-  S24  1  0.90387121  0.55926938  0.22975255  1.0
  S2-  S24  1  0.89097252  0.55341362  0.41151766  1.0
  S2-  S24  1  0.90588885  0.56228128  0.62412155  1.0
  S2-  S24  1  0.90745039  0.55892428  0.81548881  1.0
  S2-  S24  1  0.92502389  0.68947787  0.22746203  1.0
  S2-  S24  1  0.91358090  0.68559117  0.42082368  1.0
  S2-  S24  1  0.91350775  0.69102769  0.62845587  1.0
  S2-  S24  1  0.91243251  0.68294191  0.82244327  1.0
  S2-  S24  1  0.91619493  0.80746590  0.03235113  1.0
  S2-  S24  1  0.89427315  0.80813914  0.21548889  1.0
  S2-  S24  1  0.92545413  0.81008571  0.42563994  1.0
  S2-  S24  1  0.92067348  0.81476645  0.62971364  1.0
  S2-  S24  1  0.92284199  0.80924639  0.82174351  1.0
  S2-  S24  1  0.91250767  0.93292978  0.02774249  1.0
  S2-  S24  1  0.90801476  0.93492829  0.21431773  1.0
  S2-  S24  1  0.91036175  0.93441288  0.43045242  1.0
  S2-  S24  1  0.92111207  0.93528298  0.61887424  1.0
  S2-  S24  1  0.91158766  0.93900010  0.82634433  1.0
  S2-  S25  1  0.08058247  0.06855232  0.16775107  1.0
  S2-  S25  1  0.08824890  0.06661602  0.37598416  1.0
  S2-  S25  1  0.07237095  0.06176573  0.56794270  1.0
  S2-  S25  1  0.09599363  0.06535211  0.77383348  1.0
  S2-  S25  1  0.08938637  0.06234950  0.97696980  1.0
  S2-  S25  1  0.09143577  0.18906387  0.17376142  1.0
  S2-  S25  1  0.08732738  0.19304395  0.37698892  1.0
  S2-  S25  1  0.08246532  0.18663163  0.57512906  1.0
  S2-  S25  1  0.09400326  0.18810047  0.97152315  1.0
  S2-  S25  1  0.08288749  0.31103381  0.57244909  1.0
  S2-  S25  1  0.06725403  0.31062341  0.76770189  1.0
  S2-  S25  1  0.08277782  0.31626807  0.97593445  1.0
  S2-  S25  1  0.10165746  0.44009879  0.17717099  1.0
  S2-  S25  1  0.07243296  0.43600984  0.37119729  1.0
  S2-  S25  1  0.08935545  0.44074041  0.58110559  1.0
  S2-  S25  1  0.08175597  0.44530712  0.76935792  1.0
  S2-  S25  1  0.08748535  0.43573140  0.97590982  1.0
  S2-  S25  1  0.06434905  0.55588489  0.16820310  1.0
  S2-  S25  1  0.08983218  0.56840310  0.37679316  1.0
  S2-  S25  1  0.07853433  0.56303558  0.78778676  1.0
  S2-  S25  1  0.08054919  0.56650665  0.97635804  1.0
  S2-  S25  1  0.09455317  0.69131641  0.17469828  1.0
  S2-  S25  1  0.07055205  0.69030354  0.37267288  1.0
  S2-  S25  1  0.09063331  0.69163933  0.57371315  1.0
  S2-  S25  1  0.08425474  0.69273382  0.77390878  1.0
  S2-  S25  1  0.08091312  0.68790372  0.97558476  1.0
  S2-  S25  1  0.09242688  0.82201238  0.17872215  1.0
  S2-  S25  1  0.07183199  0.81188893  0.37495162  1.0
  S2-  S25  1  0.08160164  0.81473985  0.57836048  1.0
  S2-  S25  1  0.09726797  0.81308577  0.77351269  1.0
  S2-  S25  1  0.09277853  0.81917358  0.97192377  1.0
  S2-  S25  1  0.09140011  0.93997680  0.37071597  1.0
  S2-  S25  1  0.10329090  0.94362043  0.58410110  1.0
  S2-  S25  1  0.09944174  0.93982926  0.77874505  1.0
  S2-  S25  1  0.28813002  0.06183783  0.16690955  1.0
  S2-  S25  1  0.29162025  0.06511062  0.37345941  1.0
  S2-  S25  1  0.29221952  0.07056656  0.56741473  1.0
  S2-  S25  1  0.29664073  0.06754362  0.78137360  1.0
  S2-  S25  1  0.27298332  0.06383984  0.97068615  1.0
  S2-  S25  1  0.28704155  0.18611279  0.17440520  1.0
  S2-  S25  1  0.27789201  0.18882554  0.37923367  1.0
  S2-  S25  1  0.29642373  0.19019982  0.56905300  1.0
  S2-  S25  1  0.29219719  0.31609915  0.16565211  1.0
  S2-  S25  1  0.28779437  0.31128674  0.36577786  1.0
  S2-  S25  1  0.26973256  0.30774701  0.56709077  1.0
  S2-  S25  1  0.28116063  0.31851566  0.77378613  1.0
  S2-  S25  1  0.27551015  0.30960093  0.96854359  1.0
  S2-  S25  1  0.30594749  0.44484210  0.17723108  1.0
  S2-  S25  1  0.28913216  0.44208830  0.37085930  1.0
  S2-  S25  1  0.29867772  0.44751435  0.58302829  1.0
  S2-  S25  1  0.29912961  0.44417843  0.78213872  1.0
  S2-  S25  1  0.28145182  0.43594846  0.97126293  1.0
  S2-  S25  1  0.27709400  0.56387674  0.16867396  1.0
  S2-  S25  1  0.27913534  0.55995207  0.36787018  1.0
  S2-  S25  1  0.29372956  0.56694166  0.57825814  1.0
  S2-  S25  1  0.28427890  0.56520307  0.78345986  1.0
  S2-  S25  1  0.28544150  0.57002995  0.96986542  1.0
  S2-  S25  1  0.27014112  0.68931569  0.17203610  1.0
  S2-  S25  1  0.27534209  0.68872270  0.37443072  1.0
  S2-  S25  1  0.28107639  0.69310908  0.58060870  1.0
  S2-  S25  1  0.29723459  0.68683517  0.77044302  1.0
  S2-  S25  1  0.28507016  0.68890817  0.97218467  1.0
  S2-  S25  1  0.29707858  0.81679077  0.17234094  1.0
  S2-  S25  1  0.27240851  0.81075515  0.36660565  1.0
  S2-  S25  1  0.29652161  0.81526342  0.58006957  1.0
  S2-  S25  1  0.27153669  0.81568758  0.77426394  1.0
  S2-  S25  1  0.29833900  0.81346187  0.97275960  1.0
  S2-  S25  1  0.30213246  0.93923829  0.17667656  1.0
  S2-  S25  1  0.28720619  0.93435713  0.37198586  1.0
  S2-  S25  1  0.27495081  0.93951022  0.57146239  1.0
  S2-  S25  1  0.28453859  0.94183970  0.77553103  1.0
  S2-  S25  1  0.27365724  0.93622551  0.97511330  1.0
  S2-  S25  1  0.48283692  0.06015174  0.16969999  1.0
  S2-  S25  1  0.48223466  0.06077195  0.36888453  1.0
  S2-  S25  1  0.50453261  0.07291515  0.58170082  1.0
  S2-  S25  1  0.47345230  0.06408617  0.77306013  1.0
  S2-  S25  1  0.49800006  0.06743754  0.98335568  1.0
  S2-  S25  1  0.48767989  0.18985365  0.16553984  1.0
  S2-  S25  1  0.47330593  0.18535344  0.36669782  1.0
  S2-  S25  1  0.47278315  0.18626024  0.57620939  1.0
  S2-  S25  1  0.46784071  0.18914914  0.77596166  1.0
  S2-  S25  1  0.48875898  0.19412395  0.97380833  1.0
  S2-  S25  1  0.50022382  0.30968044  0.17972774  1.0
  S2-  S25  1  0.48321394  0.31950809  0.37398035  1.0
  S2-  S25  1  0.50261552  0.31895010  0.57541310  1.0
  S2-  S25  1  0.49774439  0.31470480  0.76863400  1.0
  S2-  S25  1  0.48954959  0.31148077  0.96998494  1.0
  S2-  S25  1  0.47991273  0.44102944  0.16948631  1.0
  S2-  S25  1  0.47216726  0.43639337  0.36768517  1.0
  S2-  S25  1  0.49541925  0.44276066  0.58099227  1.0
  S2-  S25  1  0.48710555  0.43959851  0.77342037  1.0
  S2-  S25  1  0.49554992  0.44344721  0.97638458  1.0
  S2-  S25  1  0.48909633  0.56075072  0.17671198  1.0
  S2-  S25  1  0.48658543  0.56142855  0.37777482  1.0
  S2-  S25  1  0.46819085  0.55737707  0.77267587  1.0
  S2-  S25  1  0.48771913  0.56084664  0.97424578  1.0
  S2-  S25  1  0.50011892  0.69064775  0.18782709  1.0
  S2-  S25  1  0.47220421  0.68250510  0.36250731  1.0
  S2-  S25  1  0.47140820  0.69677135  0.57590603  1.0
  S2-  S25  1  0.50587608  0.68863973  0.77169393  1.0
  S2-  S25  1  0.46915386  0.68850211  0.97570759  1.0
  S2-  S25  1  0.48043469  0.80958623  0.17421826  1.0
  S2-  S25  1  0.49435833  0.81306804  0.37128583  1.0
  S2-  S25  1  0.47254618  0.81684425  0.57151086  1.0
  S2-  S25  1  0.45630983  0.80995285  0.77120272  1.0
  S2-  S25  1  0.48070114  0.81109306  0.97213299  1.0
  S2-  S25  1  0.47726496  0.93769979  0.17097859  1.0
  S2-  S25  1  0.50967360  0.94527728  0.37026035  1.0
  S2-  S25  1  0.48248198  0.93506008  0.56655351  1.0
  S2-  S25  1  0.46640524  0.93696616  0.76501136  1.0
  S2-  S25  1  0.49525056  0.93705031  0.96478941  1.0
  S2-  S25  1  0.68706227  0.06421900  0.17285572  1.0
  S2-  S25  1  0.69755291  0.06881344  0.37618763  1.0
  S2-  S25  1  0.68950439  0.06397185  0.57666251  1.0
  S2-  S25  1  0.67490279  0.06680928  0.77529260  1.0
  S2-  S25  1  0.68493609  0.07199784  0.97114985  1.0
  S2-  S25  1  0.69706231  0.19036553  0.17863898  1.0
  S2-  S25  1  0.70999268  0.19232523  0.37766591  1.0
  S2-  S25  1  0.69506559  0.18787043  0.57668845  1.0
  S2-  S25  1  0.68473382  0.18582849  0.78030236  1.0
  S2-  S25  1  0.69738321  0.18700396  0.97907957  1.0
  S2-  S25  1  0.67733691  0.31630568  0.17421497  1.0
  S2-  S25  1  0.70540997  0.31587839  0.36968246  1.0
  S2-  S25  1  0.69643558  0.31335918  0.57245516  1.0
  S2-  S25  1  0.68614521  0.31292184  0.78187465  1.0
  S2-  S25  1  0.69211451  0.31106561  0.96972672  1.0
  S2-  S25  1  0.67758829  0.44295194  0.17449058  1.0
  S2-  S25  1  0.68309838  0.44447520  0.37788897  1.0
  S2-  S25  1  0.68992064  0.44024721  0.56849377  1.0
  S2-  S25  1  0.69191654  0.43842997  0.77840309  1.0
  S2-  S25  1  0.69382533  0.43959682  0.97443430  1.0
  S2-  S25  1  0.70002863  0.56043625  0.17106076  1.0
  S2-  S25  1  0.70359111  0.56963944  0.37793838  1.0
  S2-  S25  1  0.67855560  0.56258147  0.56555450  1.0
  S2-  S25  1  0.70714272  0.56431315  0.97864742  1.0
  S2-  S25  1  0.69699004  0.69463506  0.17584876  1.0
  S2-  S25  1  0.68674525  0.69250578  0.36714358  1.0
  S2-  S25  1  0.70790550  0.69546438  0.58064368  1.0
  S2-  S25  1  0.68094059  0.69257819  0.77410744  1.0
  S2-  S25  1  0.68973774  0.69050849  0.97191043  1.0
  S2-  S25  1  0.68655499  0.81002398  0.16164055  1.0
  S2-  S25  1  0.69451829  0.81819949  0.37443194  1.0
  S2-  S25  1  0.68883428  0.81924835  0.57466327  1.0
  S2-  S25  1  0.68294395  0.81579159  0.77441555  1.0
  S2-  S25  1  0.67484348  0.81444110  0.97367769  1.0
  S2-  S25  1  0.68519487  0.94281505  0.17790046  1.0
  S2-  S25  1  0.68529271  0.94023186  0.37260382  1.0
  S2-  S25  1  0.68482067  0.93918449  0.76544985  1.0
  S2-  S25  1  0.68890320  0.94083417  0.98674152  1.0
  S2-  S25  1  0.88999761  0.06266672  0.16592758  1.0
  S2-  S25  1  0.87555434  0.06316772  0.37000359  1.0
  S2-  S25  1  0.88402210  0.06348400  0.57231035  1.0
  S2-  S25  1  0.88348614  0.06485606  0.76972229  1.0
  S2-  S25  1  0.87434725  0.06401964  0.97460749  1.0
  S2-  S25  1  0.87469463  0.18792212  0.17137510  1.0
  S2-  S25  1  0.88828232  0.19225118  0.38014496  1.0
  S2-  S25  1  0.89361391  0.19374014  0.57527160  1.0
  S2-  S25  1  0.89411381  0.18779685  0.77563071  1.0
  S2-  S25  1  0.89366766  0.18960941  0.97024020  1.0
  S2-  S25  1  0.87269187  0.31661219  0.17231264  1.0
  S2-  S25  1  0.89027987  0.31968814  0.37261138  1.0
  S2-  S25  1  0.89273047  0.31239018  0.57303673  1.0
  S2-  S25  1  0.87449636  0.31236742  0.77373511  1.0
  S2-  S25  1  0.90186127  0.31617712  0.97818285  1.0
  S2-  S25  1  0.91480362  0.44162411  0.17400990  1.0
  S2-  S25  1  0.87203238  0.44103248  0.36659305  1.0
  S2-  S25  1  0.87859612  0.44078512  0.57880820  1.0
  S2-  S25  1  0.88043379  0.43561433  0.77086812  1.0
  S2-  S25  1  0.88529283  0.44017982  0.96866806  1.0
  S2-  S25  1  0.88247356  0.56813402  0.17905761  1.0
  S2-  S25  1  0.89349717  0.55876119  0.36803042  1.0
  S2-  S25  1  0.90110478  0.56370388  0.57940486  1.0
  S2-  S25  1  0.88891564  0.56240398  0.77682496  1.0
  S2-  S25  1  0.88480919  0.56651827  0.97512271  1.0
  S2-  S25  1  0.87992918  0.69186666  0.18049363  1.0
  S2-  S25  1  0.91081981  0.69226283  0.38156397  1.0
  S2-  S25  1  0.87397333  0.68760665  0.57103635  1.0
  S2-  S25  1  0.89168375  0.68783817  0.77251768  1.0
  S2-  S25  1  0.89364737  0.69024314  0.97692825  1.0
  S2-  S25  1  0.87888525  0.81375089  0.17072052  1.0
  S2-  S25  1  0.88628472  0.81338349  0.37092125  1.0
  S2-  S25  1  0.89540480  0.82163383  0.58137249  1.0
  S2-  S25  1  0.87097910  0.81594164  0.77065031  1.0
  S2-  S25  1  0.91471939  0.00996271  0.83098854  1.0
  S2-  S25  1  0.91208065  0.93942333  0.17599330  1.0
  S2-  S25  1  0.89964732  0.93986765  0.37084892  1.0
  S2-  S25  1  0.87783602  0.93872490  0.57592454  1.0
  S2-  S25  1  0.90281957  0.94241131  0.78012500  1.0
  S2-  S25  1  0.90050993  0.94182176  0.97261275  1.0
  S2-  S26  1  0.10739727  0.10335056  0.10133872  1.0
  S2-  S26  1  0.09877360  0.10198108  0.29452429  1.0
  S2-  S26  1  0.13272202  0.10742749  0.50514509  1.0
  S2-  S26  1  0.10224170  0.10721196  0.69136123  1.0
  S2-  S26  1  0.11360683  0.09990807  0.89281878  1.0
  S2-  S26  1  0.08797550  0.22714566  0.08581822  1.0
  S2-  S26  1  0.11798776  0.23033869  0.29531325  1.0
  S2-  S26  1  0.10978549  0.22732103  0.49666658  1.0
  S2-  S26  1  0.11751532  0.23746930  0.70862177  1.0
  S2-  S26  1  0.12148885  0.23098420  0.90022673  1.0
  S2-  S26  1  0.12447090  0.35597056  0.10022677  1.0
  S2-  S26  1  0.10331495  0.35278940  0.29411895  1.0
  S2-  S26  1  0.08503440  0.35493608  0.49241639  1.0
  S2-  S26  1  0.12377328  0.35902464  0.71212852  1.0
  S2-  S26  1  0.11745246  0.35552666  0.89487514  1.0
  S2-  S26  1  0.86244695  0.28567722  0.15746706  1.0
  S2-  S26  1  0.11549562  0.48009143  0.29733460  1.0
  S2-  S26  1  0.11469859  0.48140737  0.50211598  1.0
  S2-  S26  1  0.10073297  0.48194220  0.69022161  1.0
  S2-  S26  1  0.11923638  0.48105210  0.89743773  1.0
  S2-  S26  1  0.11125186  0.60547738  0.10198753  1.0
  S2-  S26  1  0.12790774  0.60810349  0.29405235  1.0
  S2-  S26  1  0.10949336  0.59721131  0.48257430  1.0
  S2-  S26  1  0.11791123  0.60031216  0.69426240  1.0
  S2-  S26  1  0.12701987  0.60693465  0.90107650  1.0
  S2-  S26  1  0.11104901  0.73044143  0.09382204  1.0
  S2-  S26  1  0.10668651  0.73031285  0.29732141  1.0
  S2-  S26  1  0.10267482  0.72273778  0.49954259  1.0
  S2-  S26  1  0.11991326  0.72936543  0.70186589  1.0
  S2-  S26  1  0.10861203  0.73106643  0.88769708  1.0
  S2-  S26  1  0.11288617  0.85411338  0.09738843  1.0
  S2-  S26  1  0.12819613  0.85497189  0.29635320  1.0
  S2-  S26  1  0.10234659  0.85041257  0.49529126  1.0
  S2-  S26  1  0.11673338  0.85524421  0.70169319  1.0
  S2-  S26  1  0.12068604  0.85525862  0.90056917  1.0
  S2-  S26  1  0.13031226  0.97735000  0.10116612  1.0
  S2-  S26  1  0.11531690  0.98344125  0.29495043  1.0
  S2-  S26  1  0.03458571  0.07995787  0.40651842  1.0
  S2-  S26  1  0.12385522  0.97861401  0.69338346  1.0
  S2-  S26  1  0.11111844  0.98598072  0.90564760  1.0
  S2-  S26  1  0.31170194  0.10783998  0.09291413  1.0
  S2-  S26  1  0.31508308  0.10362672  0.29843905  1.0
  S2-  S26  1  0.29565038  0.10309001  0.49475474  1.0
  S2-  S26  1  0.30836196  0.10026035  0.68939172  1.0
  S2-  S26  1  0.31637418  0.10602886  0.90077600  1.0
  S2-  S26  1  0.30982341  0.22659621  0.09312469  1.0
  S2-  S26  1  0.31338239  0.22676422  0.28995657  1.0
  S2-  S26  1  0.30902276  0.23091612  0.48805266  1.0
  S2-  S26  1  0.31039406  0.23172199  0.70070714  1.0
  S2-  S26  1  0.30234641  0.23124384  0.90087492  1.0
  S2-  S26  1  0.31597044  0.35368761  0.08521252  1.0
  S2-  S26  1  0.31819488  0.36017887  0.30377021  1.0
  S2-  S26  1  0.31924922  0.35558032  0.50203259  1.0
  S2-  S26  1  0.30879634  0.34933591  0.69782090  1.0
  S2-  S26  1  0.30282171  0.35525013  0.89924847  1.0
  S2-  S26  1  0.30066598  0.47681711  0.09611692  1.0
  S2-  S26  1  0.29949628  0.47940213  0.30030428  1.0
  S2-  S26  1  0.32188259  0.47422064  0.49400665  1.0
  S2-  S26  1  0.32262850  0.47873254  0.70103765  1.0
  S2-  S26  1  0.31795038  0.47803836  0.89844995  1.0
  S2-  S26  1  0.55409563  0.41900954  0.87462772  1.0
  S2-  S26  1  0.32622831  0.60727085  0.29404349  1.0
  S2-  S26  1  0.31253026  0.60776322  0.49296401  1.0
  S2-  S26  1  0.30203810  0.60509156  0.69351784  1.0
  S2-  S26  1  0.31626029  0.60771470  0.89975601  1.0
  S2-  S26  1  0.31367006  0.73272965  0.09768120  1.0
  S2-  S26  1  0.30735462  0.73379847  0.28651607  1.0
  S2-  S26  1  0.31070926  0.72884568  0.49160882  1.0
  S2-  S26  1  0.31560700  0.73153008  0.69390002  1.0
  S2-  S26  1  0.29321948  0.72577188  0.90108965  1.0
  S2-  S26  1  0.19678004  0.70234249  0.00093542  1.0
  S2-  S26  1  0.30291022  0.84785407  0.29370626  1.0
  S2-  S26  1  0.29752524  0.85108418  0.49777586  1.0
  S2-  S26  1  0.31235309  0.85785402  0.70380073  1.0
  S2-  S26  1  0.31029270  0.85501405  0.90150099  1.0
  S2-  S26  1  0.30941652  0.98379635  0.08862311  1.0
  S2-  S26  1  0.30824408  0.98064151  0.29085178  1.0
  S2-  S26  1  0.31542094  0.98059248  0.49388806  1.0
  S2-  S26  1  0.30080638  0.97718698  0.68663440  1.0
  S2-  S26  1  0.32660310  0.97934476  0.89163122  1.0
  S2-  S26  1  0.51072633  0.10581319  0.09304995  1.0
  S2-  S26  1  0.51161704  0.10928342  0.29315819  1.0
  S2-  S26  1  0.49916643  0.09849082  0.50072519  1.0
  S2-  S26  1  0.51760983  0.10486923  0.69385900  1.0
  S2-  S26  1  0.50270497  0.10415335  0.89755910  1.0
  S2-  S26  1  0.49915419  0.22852056  0.09855933  1.0
  S2-  S26  1  0.52893708  0.23180341  0.29634605  1.0
  S2-  S26  1  0.51093612  0.23137542  0.49583639  1.0
  S2-  S26  1  0.51713566  0.22779131  0.70386489  1.0
  S2-  S26  1  0.50814915  0.22768681  0.89579541  1.0
  S2-  S26  1  0.50189562  0.35551327  0.10240369  1.0
  S2-  S26  1  0.50277173  0.35891619  0.29138664  1.0
  S2-  S26  1  0.51644007  0.35194372  0.50136615  1.0
  S2-  S26  1  0.50434707  0.35386821  0.69081847  1.0
  S2-  S26  1  0.48359583  0.35130548  0.88368395  1.0
  S2-  S26  1  0.49175129  0.48098947  0.10205543  1.0
  S2-  S26  1  0.52551072  0.47623943  0.49590384  1.0
  S2-  S26  1  0.51873927  0.47575350  0.70111497  1.0
  S2-  S26  1  0.51731799  0.47368423  0.88310814  1.0
  S2-  S26  1  0.51012485  0.60809011  0.09074976  1.0
  S2-  S26  1  0.49107338  0.60524079  0.29739564  1.0
  S2-  S26  1  0.50255698  0.60307920  0.49764570  1.0
  S2-  S26  1  0.50005428  0.60243867  0.69539829  1.0
  S2-  S26  1  0.51438364  0.60430061  0.90364528  1.0
  S2-  S26  1  0.51758668  0.72888640  0.29067448  1.0
  S2-  S26  1  0.52427815  0.73337841  0.49923369  1.0
  S2-  S26  1  0.51614139  0.73231776  0.70585315  1.0
  S2-  S26  1  0.52143195  0.85648216  0.30287041  1.0
  S2-  S26  1  0.52352155  0.85591374  0.50277942  1.0
  S2-  S26  1  0.50767394  0.85840707  0.69465355  1.0
  S2-  S26  1  0.50074427  0.97961069  0.08885234  1.0
  S2-  S26  1  0.50642822  0.98126515  0.29796348  1.0
  S2-  S26  1  0.51961447  0.98216696  0.50036026  1.0
  S2-  S26  1  0.50557722  0.98304183  0.69688228  1.0
  S2-  S26  1  0.51392013  0.98037039  0.90453128  1.0
  S2-  S26  1  0.69821787  0.10391188  0.09709663  1.0
  S2-  S26  1  0.70991223  0.10345018  0.28661728  1.0
  S2-  S26  1  0.70946555  0.10621281  0.49954341  1.0
  S2-  S26  1  0.71007750  0.10561129  0.69133836  1.0
  S2-  S26  1  0.71511308  0.10506166  0.89784727  1.0
  S2-  S26  1  0.70967353  0.23072493  0.09976482  1.0
  S2-  S26  1  0.70808164  0.22408610  0.29470583  1.0
  S2-  S26  1  0.70513099  0.22772132  0.50118940  1.0
  S2-  S26  1  0.69935292  0.22735775  0.68335479  1.0
  S2-  S26  1  0.75083208  0.09319094  0.69320560  1.0
  S2-  S26  1  0.71039350  0.34777284  0.09528410  1.0
  S2-  S26  1  0.70785601  0.36048930  0.30057440  1.0
  S2-  S26  1  0.70995576  0.35235440  0.49132227  1.0
  S2-  S26  1  0.71452945  0.35232387  0.69157097  1.0
  S2-  S26  1  0.72612646  0.35596863  0.89357001  1.0
  S2-  S26  1  0.71583528  0.47912081  0.08833695  1.0
  S2-  S26  1  0.70296456  0.47661125  0.29523319  1.0
  S2-  S26  1  0.70494514  0.48032732  0.49918312  1.0
  S2-  S26  1  0.74089959  0.48648771  0.70415083  1.0
  S2-  S26  1  0.70882600  0.47809017  0.88762222  1.0
  S2-  S26  1  0.68578053  0.60228266  0.10012970  1.0
  S2-  S26  1  0.72741007  0.60526452  0.30077201  1.0
  S2-  S26  1  0.70507611  0.60493255  0.49217993  1.0
  S2-  S26  1  0.70534609  0.60702848  0.69402373  1.0
  S2-  S26  1  0.71565101  0.60455086  0.90359481  1.0
  S2-  S26  1  0.71746813  0.73082767  0.09092973  1.0
  S2-  S26  1  0.70615246  0.72986689  0.29620471  1.0
  S2-  S26  1  0.71845488  0.73070275  0.49286284  1.0
  S2-  S26  1  0.71567147  0.72852660  0.69332806  1.0
  S2-  S26  1  0.69911146  0.72888513  0.89203234  1.0
  S2-  S26  1  0.72194441  0.85415847  0.09993373  1.0
  S2-  S26  1  0.69553652  0.85745861  0.29900948  1.0
  S2-  S26  1  0.69250176  0.84854331  0.48790738  1.0
  S2-  S26  1  0.70698784  0.85273203  0.69385971  1.0
  S2-  S26  1  0.71598306  0.85321059  0.89768534  1.0
  S2-  S26  1  0.70375767  0.97038583  0.08730662  1.0
  S2-  S26  1  0.71824875  0.97711298  0.29094183  1.0
  S2-  S26  1  0.72200787  0.98053129  0.50497833  1.0
  S2-  S26  1  0.71030192  0.98395126  0.69416936  1.0
  S2-  S26  1  0.68767920  0.98222655  0.89767651  1.0
  S2-  S26  1  0.91726873  0.10435732  0.10391959  1.0
  S2-  S26  1  0.92239594  0.10772109  0.29974826  1.0
  S2-  S26  1  0.89797767  0.10525149  0.49689693  1.0
  S2-  S26  1  0.93229962  0.10589849  0.69448007  1.0
  S2-  S26  1  0.91976939  0.10913189  0.90763653  1.0
  S2-  S26  1  0.91709916  0.23215391  0.09526260  1.0
  S2-  S26  1  0.93055050  0.02254699  0.51172506  1.0
  S2-  S26  1  0.93051104  0.22886771  0.49882515  1.0
  S2-  S26  1  0.91812231  0.23371323  0.70042117  1.0
  S2-  S26  1  0.90153031  0.35652222  0.10142954  1.0
  S2-  S26  1  0.90476485  0.35763993  0.49831952  1.0
  S2-  S26  1  0.91015992  0.35294375  0.69443167  1.0
  S2-  S26  1  0.91425557  0.35364756  0.89165330  1.0
  S2-  S26  1  0.90190033  0.48094701  0.09829355  1.0
  S2-  S26  1  0.91616756  0.48595033  0.29195454  1.0
  S2-  S26  1  0.97556883  0.25874314  0.40158885  1.0
  S2-  S26  1  0.91314530  0.47945522  0.68730719  1.0
  S2-  S26  1  0.91026090  0.48004040  0.90074871  1.0
  S2-  S26  1  0.90144847  0.60973013  0.08581701  1.0
  S2-  S26  1  0.89882351  0.60560529  0.29693215  1.0
  S2-  S26  1  0.92687917  0.60566112  0.49821795  1.0
  S2-  S26  1  0.90835488  0.59739556  0.68784918  1.0
  S2-  S26  1  0.90243835  0.60813532  0.90324163  1.0
  S2-  S26  1  0.93156928  0.73188829  0.10404634  1.0
  S2-  S26  1  0.91058513  0.72840253  0.29064094  1.0
  S2-  S26  1  0.89527810  0.72555914  0.69610008  1.0
  S2-  S26  1  0.90486325  0.72767127  0.88514977  1.0
  S2-  S26  1  0.90120129  0.85409457  0.08773587  1.0
  S2-  S26  1  0.93356095  0.85065975  0.30252466  1.0
  S2-  S26  1  0.90823765  0.85318352  0.49419782  1.0
  S2-  S26  1  0.91204473  0.85576959  0.69240418  1.0
  S2-  S26  1  0.91591005  0.97912000  0.09040251  1.0
  S2-  S26  1  0.91134684  0.98466075  0.29987580  1.0
  S2-  S26  1  0.91000971  0.97873388  0.49433434  1.0
  S2-  S26  1  0.91257017  0.97916509  0.69849463  1.0
  S2-  S26  1  0.91071582  0.97614037  0.89718289  1.0
  S2-  S27  1  0.00846430  0.10134675  0.31714864  1.0
  S2-  S27  1  0.97864166  0.43110189  0.13175353  1.0
  S2-  S27  1  0.03023275  0.23093977  0.31852160  1.0
  S2-  S27  1  0.01933821  0.23024004  0.90385530  1.0
  S2-  S27  1  0.01221305  0.35838114  0.11821459  1.0
  S2-  S27  1  0.01167713  0.35465710  0.32382292  1.0
  S2-  S27  1  0.01602253  0.47854338  0.12008759  1.0
  S2-  S27  1  0.03313785  0.48338704  0.32195374  1.0
  S2-  S27  1  0.01572909  0.47911702  0.52574716  1.0
  S2-  S27  1  0.02734944  0.60302940  0.11259377  1.0
  S2-  S27  1  0.81615387  0.41979902  0.29019203  1.0
  S2-  S27  1  0.01936401  0.60745250  0.52326659  1.0
  S2-  S27  1  0.99689701  0.60131125  0.71905800  1.0
  S2-  S27  1  0.02563470  0.73176599  0.32552436  1.0
  S2-  S27  1  0.02479636  0.73096493  0.71865254  1.0
  S2-  S27  1  0.02319290  0.85561627  0.12907544  1.0
  S2-  S27  1  0.09010081  0.63697722  0.55129402  1.0
  S2-  S27  1  0.02813152  0.85420146  0.92646056  1.0
  S2-  S27  1  0.01411621  0.98005779  0.12177269  1.0
  S2-  S27  1  0.02507026  0.14717045  0.29421058  1.0
  S2-  S27  1  0.19182489  0.89836454  0.32880070  1.0
  S2-  S27  1  0.08902057  0.06530347  0.79617214  1.0
  S2-  S27  1  0.10592084  0.15499806  0.77188176  1.0
  S2-  S27  1  0.10633991  0.01660113  0.22159263  1.0
  S2-  S27  1  0.18778888  0.28095945  0.60385950  1.0
  S2-  S27  1  0.21730129  0.10259120  0.91759010  1.0
  S2-  S27  1  0.30871584  0.37527804  0.00017487  1.0
  S2-  S27  1  0.10671158  0.06273348  0.50537868  1.0
  S2-  S27  1  0.21109795  0.23129624  0.52634794  1.0
  S2-  S27  1  0.23317072  0.22602740  0.91912014  1.0
  S2-  S27  1  0.20494145  0.35143130  0.11699329  1.0
  S2-  S27  1  0.20216864  0.35596154  0.32139605  1.0
  S2-  S27  1  0.23006841  0.19858019  0.31427007  1.0
  S2-  S27  1  0.24056982  0.35289696  0.71795472  1.0
  S2-  S27  1  0.20746167  0.35949222  0.91263293  1.0
  S2-  S27  1  0.22922266  0.48620740  0.12590708  1.0
  S2-  S27  1  0.02756455  0.28141491  0.47014291  1.0
  S2-  S27  1  0.22351348  0.48135611  0.50994899  1.0
  S2-  S27  1  0.22621124  0.48100762  0.73359176  1.0
  S2-  S27  1  0.22172546  0.60531682  0.12256375  1.0
  S2-  S27  1  0.22147798  0.60057093  0.32226055  1.0
  S2-  S27  1  0.21319456  0.60592017  0.51593267  1.0
  S2-  S27  1  0.32723711  0.76964278  0.28730186  1.0
  S2-  S27  1  0.22140851  0.73080819  0.52043112  1.0
  S2-  S27  1  0.22814182  0.72785395  0.72227643  1.0
  S2-  S27  1  0.11831834  0.92290746  0.92479030  1.0
  S2-  S27  1  0.21951828  0.86025061  0.12525270  1.0
  S2-  S27  1  0.32511861  0.63909966  0.41057843  1.0
  S2-  S27  1  0.41348402  0.79603487  0.71703182  1.0
  S2-  S27  1  0.20971638  0.85666727  0.92781777  1.0
  S2-  S27  1  0.23974212  0.98706580  0.13744650  1.0
  S2-  S27  1  0.21113210  0.97857845  0.31120652  1.0
  S2-  S27  1  0.21281568  0.98309138  0.52230746  1.0
  S2-  S27  1  0.23291378  0.97677165  0.71767195  1.0
  S2-  S27  1  0.23028321  0.98303992  0.91523043  1.0
  S2-  S27  1  0.41992234  0.10589632  0.52446557  1.0
  S2-  S27  1  0.43062752  0.10435085  0.91539415  1.0
  S2-  S27  1  0.40131085  0.22899962  0.11635286  1.0
  S2-  S27  1  0.41591705  0.23250655  0.51563832  1.0
  S2-  S27  1  0.41810441  0.23339916  0.71808033  1.0
  S2-  S27  1  0.50319292  0.31246872  0.80150181  1.0
  S2-  S27  1  0.53480760  0.53353821  0.46393858  1.0
  S2-  S27  1  0.31378111  0.34593885  0.96369619  1.0
  S2-  S27  1  0.59912339  0.27857449  0.29681775  1.0
  S2-  S27  1  0.43877974  0.47839962  0.52072985  1.0
  S2-  S27  1  0.42785918  0.60493473  0.12450246  1.0
  S2-  S27  1  0.41449267  0.60833481  0.32452933  1.0
  S2-  S27  1  0.52550294  0.64034840  0.32234714  1.0
  S2-  S27  1  0.42673863  0.60507468  0.92409202  1.0
  S2-  S27  1  0.42655406  0.72794458  0.12084586  1.0
  S2-  S27  1  0.42995576  0.73002749  0.31809371  1.0
  S2-  S27  1  0.20290439  0.97704943  0.79417746  1.0
  S2-  S27  1  0.30649613  0.58562540  0.02965789  1.0
  S2-  S27  1  0.41606882  0.84618098  0.11519251  1.0
  S2-  S27  1  0.43170558  0.85590566  0.72263260  1.0
  S2-  S27  1  0.43701952  0.84903424  0.91241766  1.0
  S2-  S27  1  0.42867857  0.98252285  0.12698458  1.0
  S2-  S27  1  0.41274326  0.97684116  0.51330101  1.0
  S2-  S27  1  0.48748508  0.01458929  0.83615007  1.0
  S2-  S27  1  0.61867348  0.10229902  0.11558020  1.0
  S2-  S27  1  0.60333354  0.22700405  0.11437882  1.0
  S2-  S27  1  0.62484045  0.22927049  0.31647237  1.0
  S2-  S27  1  0.60812381  0.22882115  0.50869469  1.0
  S2-  S27  1  0.82031298  0.35839528  0.71971862  1.0
  S2-  S27  1  0.62278645  0.22971823  0.91396380  1.0
  S2-  S27  1  0.53733896  0.41576485  0.32147543  1.0
  S2-  S27  1  0.61807857  0.35830545  0.51479547  1.0
  S2-  S27  1  0.63312054  0.35360163  0.91864389  1.0
  S2-  S27  1  0.52553426  0.72586313  0.96376322  1.0
  S2-  S27  1  0.61173326  0.47538456  0.30860019  1.0
  S2-  S27  1  0.84121451  0.40661669  0.76492781  1.0
  S2-  S27  1  0.62810183  0.47828729  0.71738385  1.0
  S2-  S27  1  0.62550487  0.47821716  0.91555600  1.0
  S2-  S27  1  0.62757470  0.60413297  0.52432350  1.0
  S2-  S27  1  0.62022960  0.60791723  0.72182812  1.0
  S2-  S27  1  0.50374825  0.48350035  0.07429714  1.0
  S2-  S27  1  0.53431406  0.82827581  0.31672883  1.0
  S2-  S27  1  0.48591053  0.97159944  0.60251441  1.0
  S2-  S27  1  0.63235918  0.73196101  0.92354894  1.0
  S2-  S27  1  0.61908271  0.85412099  0.31670128  1.0
  S2-  S27  1  0.61834876  0.85074128  0.52164722  1.0
  S2-  S27  1  0.61408006  0.85204420  0.71166727  1.0
  S2-  S27  1  0.61946193  0.85427728  0.91747769  1.0
  S2-  S27  1  0.62717256  0.98073034  0.32177756  1.0
  S2-  S27  1  0.60954471  0.97718067  0.71117928  1.0
  S2-  S27  1  0.62091378  0.98142268  0.91539044  1.0
  S2-  S27  1  0.81531858  0.10442149  0.32217305  1.0
  S2-  S27  1  0.81325117  0.11183351  0.52640203  1.0
  S2-  S27  1  0.81177799  0.10110340  0.71887390  1.0
  S2-  S27  1  0.82270755  0.10136455  0.91363201  1.0
  S2-  S27  1  0.81236980  0.22980439  0.11973674  1.0
  S2-  S27  1  0.83593353  0.22253374  0.31540532  1.0
  S2-  S27  1  0.81731425  0.23118046  0.52308970  1.0
  S2-  S27  1  0.82378519  0.23452123  0.71765257  1.0
  S2-  S27  1  0.81004989  0.22530388  0.91625613  1.0
  S2-  S27  1  0.82021517  0.35715807  0.33017168  1.0
  S2-  S27  1  0.83214267  0.35060610  0.51987581  1.0
  S2-  S27  1  0.83194355  0.35661070  0.73476689  1.0
  S2-  S27  1  0.58668636  0.46532099  0.31376588  1.0
  S2-  S27  1  0.93324940  0.58172969  0.18435577  1.0
  S2-  S27  1  0.59556188  0.71189546  0.63790351  1.0
  S2-  S27  1  0.89162348  0.37533681  0.99706825  1.0
  S2-  S27  1  0.82241881  0.60754724  0.52159868  1.0
  S2-  S27  1  0.89878950  0.89814259  0.32979123  1.0
  S2-  S27  1  0.82993033  0.72602223  0.31358783  1.0
  S2-  S27  1  0.61721221  0.84179744  0.56932408  1.0
  S2-  S27  1  0.85050606  0.73245720  0.91932543  1.0
  S2-  S27  1  0.81416493  0.85778171  0.11539847  1.0
  S2-  S27  1  0.81240543  0.85579760  0.31728557  1.0
  S2-  S27  1  0.82125397  0.85360295  0.91985980  1.0
  S2-  S27  1  0.64309552  0.82905458  0.92354058  1.0
  S2-  S27  1  0.93949508  0.77348726  0.39171451  1.0
  S2-  S27  1  0.80624059  0.97924386  0.51989716  1.0
  S2-  S27  1  0.82312462  0.98096339  0.73091470  1.0
  S2-  S27  1  0.81481933  0.97827369  0.92464089  1.0
  S2-  S28  1  0.07542433  0.12288369  0.03750214  1.0
  S2-  S28  1  0.06171222  0.11746451  0.23695545  1.0
  S2-  S28  1  0.05958619  0.11780922  0.43919076  1.0
  S2-  S28  1  0.04078916  0.09946667  0.01918782  1.0
  S2-  S28  1  0.08152995  0.24605368  0.03823564  1.0
  S2-  S28  1  0.07471580  0.24664974  0.23712585  1.0
  S2-  S28  1  0.07171256  0.24878405  0.44421536  1.0
  S2-  S28  1  0.06838771  0.25057426  0.65029924  1.0
  S2-  S28  1  0.07272082  0.24622506  0.83446289  1.0
  S2-  S28  1  0.06710677  0.37245590  0.05011677  1.0
  S2-  S28  1  0.07899977  0.37031783  0.23747341  1.0
  S2-  S28  1  0.06944308  0.37485753  0.43941341  1.0
  S2-  S28  1  0.07656311  0.37062892  0.64938212  1.0
  S2-  S28  1  0.06525524  0.36910722  0.83505086  1.0
  S2-  S28  1  0.08145692  0.50107981  0.04454289  1.0
  S2-  S28  1  0.08157945  0.49825199  0.23330192  1.0
  S2-  S28  1  0.07162221  0.49536691  0.43799484  1.0
  S2-  S28  1  0.06726194  0.49923272  0.64024561  1.0
  S2-  S28  1  0.07273429  0.49592085  0.83607670  1.0
  S2-  S28  1  0.05584182  0.62228701  0.03831508  1.0
  S2-  S28  1  0.07832134  0.62163683  0.23492855  1.0
  S2-  S28  1  0.06900626  0.62576921  0.44246164  1.0
  S2-  S28  1  0.08363531  0.62439776  0.63731149  1.0
  S2-  S28  1  0.07148999  0.62362191  0.83634631  1.0
  S2-  S28  1  0.06708314  0.74470725  0.03433354  1.0
  S2-  S28  1  0.25548011  0.58384680  0.37355360  1.0
  S2-  S28  1  0.07854856  0.74965595  0.44513028  1.0
  S2-  S28  1  0.07962396  0.75174732  0.64575522  1.0
  S2-  S28  1  0.08028489  0.74586927  0.83806503  1.0
  S2-  S28  1  0.07933570  0.87435634  0.04228289  1.0
  S2-  S28  1  0.06246460  0.86721494  0.22861822  1.0
  S2-  S28  1  0.07572947  0.87406201  0.42999968  1.0
  S2-  S28  1  0.06431529  0.86888784  0.63891449  1.0
  S2-  S28  1  0.06229423  0.99238826  0.23328616  1.0
  S2-  S28  1  0.06517320  0.99644336  0.43742416  1.0
  S2-  S28  1  0.07716204  0.99638062  0.64458827  1.0
  S2-  S28  1  0.07022925  0.99842328  0.84147283  1.0
  S2-  S28  1  0.27196149  0.12364465  0.03647418  1.0
  S2-  S28  1  0.28271983  0.11886910  0.23286886  1.0
  S2-  S28  1  0.25890351  0.12169806  0.43517460  1.0
  S2-  S28  1  0.27114860  0.11780495  0.83968779  1.0
  S2-  S28  1  0.27318234  0.24490905  0.04158105  1.0
  S2-  S28  1  0.27878982  0.24670128  0.24432362  1.0
  S2-  S28  1  0.28139212  0.24382937  0.44440662  1.0
  S2-  S28  1  0.26620109  0.24891714  0.64422806  1.0
  S2-  S28  1  0.27086151  0.24622730  0.83757281  1.0
  S2-  S28  1  0.26256482  0.36932107  0.03947728  1.0
  S2-  S28  1  0.28125739  0.37135392  0.23545656  1.0
  S2-  S28  1  0.50271978  0.22312374  0.35875983  1.0
  S2-  S28  1  0.28241536  0.36911071  0.64212518  1.0
  S2-  S28  1  0.26569844  0.37047646  0.83885308  1.0
  S2-  S28  1  0.27926387  0.49777905  0.23804261  1.0
  S2-  S28  1  0.27260452  0.49517875  0.43190953  1.0
  S2-  S28  1  0.27897683  0.62551892  0.04928360  1.0
  S2-  S28  1  0.27671703  0.62222258  0.22773430  1.0
  S2-  S28  1  0.30441529  0.62606766  0.64874075  1.0
  S2-  S28  1  0.26655235  0.61412579  0.83595713  1.0
  S2-  S28  1  0.34678622  0.84878502  0.32784008  1.0
  S2-  S28  1  0.28615961  0.74751164  0.44295123  1.0
  S2-  S28  1  0.27576940  0.74534838  0.64271950  1.0
  S2-  S28  1  0.28809318  0.74653556  0.83753186  1.0
  S2-  S28  1  0.13333930  0.01130837  0.29021596  1.0
  S2-  S28  1  0.27566585  0.87063259  0.24056553  1.0
  S2-  S28  1  0.40845536  0.90200255  0.18345066  1.0
  S2-  S28  1  0.26458583  0.87313087  0.63790729  1.0
  S2-  S28  1  0.26174018  0.86695954  0.83907770  1.0
  S2-  S28  1  0.28025340  0.99306109  0.03795662  1.0
  S2-  S28  1  0.26302804  0.99593861  0.24083193  1.0
  S2-  S28  1  0.28751818  0.99494314  0.44359328  1.0
  S2-  S28  1  0.27952243  0.99590814  0.64531920  1.0
  S2-  S28  1  0.47085407  0.12282093  0.03703521  1.0
  S2-  S28  1  0.47940975  0.12280726  0.24634499  1.0
  S2-  S28  1  0.49392094  0.12438768  0.44631628  1.0
  S2-  S28  1  0.46183002  0.11401223  0.64064594  1.0
  S2-  S28  1  0.49225257  0.12242169  0.83724518  1.0
  S2-  S28  1  0.48994469  0.25000488  0.43333615  1.0
  S2-  S28  1  0.47492378  0.24719282  0.63231986  1.0
  S2-  S28  1  0.46540279  0.24996079  0.84048224  1.0
  S2-  S28  1  0.46121463  0.36921793  0.03123558  1.0
  S2-  S28  1  0.47585942  0.37385440  0.24638965  1.0
  S2-  S28  1  0.46500759  0.37024724  0.44022193  1.0
  S2-  S28  1  0.48342128  0.37261018  0.64708923  1.0
  S2-  S28  1  0.48582118  0.36608522  0.84542924  1.0
  S2-  S28  1  0.47994590  0.49361790  0.04014983  1.0
  S2-  S28  1  0.47572345  0.49284690  0.23763661  1.0
  S2-  S28  1  0.47097159  0.49287914  0.43579290  1.0
  S2-  S28  1  0.49197463  0.50189064  0.63889237  1.0
  S2-  S28  1  0.45004084  0.50043626  0.84724994  1.0
  S2-  S28  1  0.48062026  0.62046503  0.23460937  1.0
  S2-  S28  1  0.48219803  0.62484051  0.43889264  1.0
  S2-  S28  1  0.47416056  0.61998333  0.64233970  1.0
  S2-  S28  1  0.45346993  0.62269462  0.83596856  1.0
  S2-  S28  1  0.49335865  0.74721979  0.04573626  1.0
  S2-  S28  1  0.46267486  0.74567888  0.23965678  1.0
  S2-  S28  1  0.46843139  0.74561093  0.43966020  1.0
  S2-  S28  1  0.45405317  0.74469078  0.64006362  1.0
  S2-  S28  1  0.47610626  0.75402100  0.84375129  1.0
  S2-  S28  1  0.45567914  0.87284856  0.03302848  1.0
  S2-  S28  1  0.47440087  0.86955605  0.23622861  1.0
  S2-  S28  1  0.47816979  0.86623695  0.43513725  1.0
  S2-  S28  1  0.47097110  0.87576134  0.63952083  1.0
  S2-  S28  1  0.54217888  0.85413500  0.12351958  1.0
  S2-  S28  1  0.46744085  0.99865161  0.22618906  1.0
  S2-  S28  1  0.46105128  0.99419393  0.44420727  1.0
  S2-  S28  1  0.47711126  0.99629753  0.83924877  1.0
  S2-  S28  1  0.67476354  0.12220196  0.04049624  1.0
  S2-  S28  1  0.69081587  0.11996867  0.24149482  1.0
  S2-  S28  1  0.49673487  0.33447417  0.24892062  1.0
  S2-  S28  1  0.66441182  0.11647121  0.64064540  1.0
  S2-  S28  1  0.65925881  0.12316060  0.84654578  1.0
  S2-  S28  1  0.69102221  0.24540318  0.03926339  1.0
  S2-  S28  1  0.67482954  0.24933848  0.24030738  1.0
  S2-  S28  1  0.67337337  0.24989930  0.44124154  1.0
  S2-  S28  1  0.66880787  0.24313040  0.84237595  1.0
  S2-  S28  1  0.67519636  0.37136277  0.23073411  1.0
  S2-  S28  1  0.67876184  0.36770200  0.64034369  1.0
  S2-  S28  1  0.65777226  0.36627993  0.83815550  1.0
  S2-  S28  1  0.67391016  0.49653484  0.04871926  1.0
  S2-  S28  1  0.69129840  0.49559564  0.23483612  1.0
  S2-  S28  1  0.68268847  0.49201598  0.84057467  1.0
  S2-  S28  1  0.67033347  0.62164885  0.04493581  1.0
  S2-  S28  1  0.80474332  0.78398649  0.16429400  1.0
  S2-  S28  1  0.69829870  0.62946975  0.43920746  1.0
  S2-  S28  1  0.66537772  0.61803694  0.64084085  1.0
  S2-  S28  1  0.67610435  0.62426363  0.83917218  1.0
  S2-  S28  1  0.67918865  0.74581744  0.24041854  1.0
  S2-  S28  1  0.67124982  0.75083636  0.43526233  1.0
  S2-  S28  1  0.72632039  0.64882792  0.42023189  1.0
  S2-  S28  1  0.66189675  0.74381695  0.83924202  1.0
  S2-  S28  1  0.68294904  0.87528150  0.03564159  1.0
  S2-  S28  1  0.68308857  0.86846127  0.24538183  1.0
  S2-  S28  1  0.65319625  0.86776819  0.44345821  1.0
  S2-  S28  1  0.69079231  0.87172821  0.63995027  1.0
  S2-  S28  1  0.67389786  0.87275351  0.84245700  1.0
  S2-  S28  1  0.66381326  0.99008906  0.03266782  1.0
  S2-  S28  1  0.65964193  0.99889845  0.24073051  1.0
  S2-  S28  1  0.67459961  0.99532721  0.44881310  1.0
  S2-  S28  1  0.68483950  0.99707059  0.63844468  1.0
  S2-  S28  1  0.68597685  0.99676136  0.83790461  1.0
  S2-  S28  1  0.11064831  0.35062827  0.96787327  1.0
  S2-  S28  1  0.88115133  0.12354542  0.23983582  1.0
  S2-  S28  1  0.86780378  0.12188555  0.43856557  1.0
  S2-  S28  1  0.86268809  0.12129583  0.64135263  1.0
  S2-  S28  1  0.87380956  0.12657733  0.83596177  1.0
  S2-  S28  1  0.80915372  0.13237360  0.93160483  1.0
  S2-  S28  1  0.87213254  0.24351141  0.22896904  1.0
  S2-  S28  1  0.85548397  0.24068321  0.43870876  1.0
  S2-  S28  1  0.86432253  0.24862044  0.64196108  1.0
  S2-  S28  1  0.88243051  0.24407037  0.84119549  1.0
  S2-  S28  1  0.87436919  0.37180691  0.03957753  1.0
  S2-  S28  1  0.88594242  0.37447847  0.24461694  1.0
  S2-  S28  1  0.86640204  0.36952788  0.43783198  1.0
  S2-  S28  1  0.05277784  0.54058260  0.62234644  1.0
  S2-  S28  1  0.86809218  0.49468209  0.03800291  1.0
  S2-  S28  1  0.89939787  0.49780381  0.24898521  1.0
  S2-  S28  1  0.87508028  0.49802854  0.44576258  1.0
  S2-  S28  1  0.85628220  0.49563979  0.63997719  1.0
  S2-  S28  1  0.87503231  0.49322819  0.83450883  1.0
  S2-  S28  1  0.87103234  0.61627934  0.03722821  1.0
  S2-  S28  1  0.87888175  0.62022002  0.23203829  1.0
  S2-  S28  1  0.86727776  0.62099738  0.43337155  1.0
  S2-  S28  1  0.87360908  0.62196208  0.64534845  1.0
  S2-  S28  1  0.87147138  0.62176535  0.83670760  1.0
  S2-  S28  1  0.87019909  0.74869749  0.03898568  1.0
  S2-  S28  1  0.88086669  0.74624841  0.23472821  1.0
  S2-  S28  1  0.87337622  0.75428783  0.44266142  1.0
  S2-  S28  1  0.85312148  0.86768876  0.03188863  1.0
  S2-  S28  1  0.86044365  0.86781628  0.24308605  1.0
  S2-  S28  1  0.87877605  0.87074934  0.43688494  1.0
  S2-  S28  1  0.87669172  0.00220844  0.03842504  1.0
  S2-  S28  1  0.85911487  0.99857737  0.24354284  1.0
  S2-  S28  1  0.88615007  0.99525196  0.43865234  1.0
  S2-  S28  1  0.89468745  0.99834304  0.64232567  1.0
  S2-  S28  1  0.87643337  0.99497912  0.84045445  1.0
  S2-  S29  1  0.04652946  0.02200990  0.18699627  1.0
  S2-  S29  1  0.04101265  0.01548503  0.39678233  1.0
  S2-  S29  1  0.03176973  0.01389258  0.59923157  1.0
  S2-  S29  1  0.03619315  0.01959920  0.78129537  1.0
  S2-  S29  1  0.04576532  0.02474454  0.99621920  1.0
  S2-  S29  1  0.02176043  0.14180063  0.19067687  1.0
  S2-  S29  1  0.04593260  0.14270451  0.39140880  1.0
  S2-  S29  1  0.02508296  0.14002710  0.57405626  1.0
  S2-  S29  1  0.04999594  0.14394650  0.79060876  1.0
  S2-  S29  1  0.01032598  0.14412764  0.98874479  1.0
  S2-  S29  1  0.02039468  0.26943364  0.18711978  1.0
  S2-  S29  1  0.04051882  0.27355390  0.39676589  1.0
  S2-  S29  1  0.07040989  0.26533391  0.59322392  1.0
  S2-  S29  1  0.05390031  0.39203212  0.19812577  1.0
  S2-  S29  1  0.03930392  0.38859319  0.38071329  1.0
  S2-  S29  1  0.03503252  0.39400176  0.59476619  1.0
  S2-  S29  1  0.04392810  0.39820062  0.79244307  1.0
  S2-  S29  1  0.04031037  0.39333742  0.99383798  1.0
  S2-  S29  1  0.04010852  0.51690050  0.19004953  1.0
  S2-  S29  1  0.03494035  0.51761785  0.39382865  1.0
  S2-  S29  1  0.04614038  0.52625082  0.59712715  1.0
  S2-  S29  1  0.03086386  0.51656827  0.78138599  1.0
  S2-  S29  1  0.04447446  0.64149592  0.17805677  1.0
  S2-  S29  1  0.02119322  0.64068869  0.38732712  1.0
  S2-  S29  1  0.04320120  0.64736429  0.58715319  1.0
  S2-  S29  1  0.04329121  0.64998788  0.79109985  1.0
  S2-  S29  1  0.04129273  0.64214920  0.98766414  1.0
  S2-  S29  1  0.04787657  0.77143241  0.19209618  1.0
  S2-  S29  1  0.03890791  0.76971413  0.38620242  1.0
  S2-  S29  1  0.03997839  0.77037332  0.59479864  1.0
  S2-  S29  1  0.03145343  0.76871161  0.78359585  1.0
  S2-  S29  1  0.03977218  0.77255233  0.98860574  1.0
  S2-  S29  1  0.03173037  0.88983878  0.18377491  1.0
  S2-  S29  1  0.02651964  0.89519850  0.39024462  1.0
  S2-  S29  1  0.04570085  0.89559757  0.59249168  1.0
  S2-  S29  1  0.02342462  0.89172038  0.77585904  1.0
  S2-  S29  1  0.03376476  0.89144988  0.98735237  1.0
  S2-  S29  1  0.26805318  0.02184065  0.20128306  1.0
  S2-  S29  1  0.24897493  0.01896314  0.39043397  1.0
  S2-  S29  1  0.25048850  0.02009942  0.58983402  1.0
  S2-  S29  1  0.25670232  0.02073985  0.78546781  1.0
  S2-  S29  1  0.23945182  0.01945333  0.98771045  1.0
  S2-  S29  1  0.23595628  0.14292867  0.18004506  1.0
  S2-  S29  1  0.21949190  0.14215866  0.38434557  1.0
  S2-  S29  1  0.22455446  0.14094930  0.58504336  1.0
  S2-  S29  1  0.04829566  0.36797315  0.01136348  1.0
  S2-  S29  1  0.98787694  0.23418916  0.14226228  1.0
  S2-  S29  1  0.22206776  0.26779115  0.38789124  1.0
  S2-  S29  1  0.22542300  0.27068810  0.99593503  1.0
  S2-  S29  1  0.25275409  0.39370980  0.19464672  1.0
  S2-  S29  1  0.22484345  0.39519726  0.38686704  1.0
  S2-  S29  1  0.23992690  0.39462811  0.59159819  1.0
  S2-  S29  1  0.22356567  0.39109204  0.78498375  1.0
  S2-  S29  1  0.22378324  0.51973710  0.19191021  1.0
  S2-  S29  1  0.25527733  0.51960394  0.40043899  1.0
  S2-  S29  1  0.23683827  0.51519088  0.58701933  1.0
  S2-  S29  1  0.24064776  0.52097279  0.79177079  1.0
  S2-  S29  1  0.24608726  0.64744278  0.18978048  1.0
  S2-  S29  1  0.24733991  0.64520546  0.39142729  1.0
  S2-  S29  1  0.23648746  0.64014361  0.58601932  1.0
  S2-  S29  1  0.23695512  0.64193256  0.78170301  1.0
  S2-  S29  1  0.23407281  0.64274557  0.98184578  1.0
  S2-  S29  1  0.22121496  0.76246728  0.18558885  1.0
  S2-  S29  1  0.25089797  0.76934201  0.58896724  1.0
  S2-  S29  1  0.22037873  0.76209897  0.78376364  1.0
  S2-  S29  1  0.24464669  0.76657486  0.99383744  1.0
  S2-  S29  1  0.23759708  0.89782788  0.18733233  1.0
  S2-  S29  1  0.21648517  0.89633216  0.38352744  1.0
  S2-  S29  1  0.22720910  0.89586007  0.58468702  1.0
  S2-  S29  1  0.23108062  0.89856625  0.78966753  1.0
  S2-  S29  1  0.22534326  0.89277915  0.99730495  1.0
  S2-  S29  1  0.44021978  0.01719632  0.19100548  1.0
  S2-  S29  1  0.43498002  0.01762823  0.38513147  1.0
  S2-  S29  1  0.45021583  0.01992463  0.59781593  1.0
  S2-  S29  1  0.44703071  0.02402349  0.79497861  1.0
  S2-  S29  1  0.43808125  0.14384801  0.19783205  1.0
  S2-  S29  1  0.22389199  0.34700864  0.28581210  1.0
  S2-  S29  1  0.42524428  0.14237666  0.58788968  1.0
  S2-  S29  1  0.43474169  0.14437888  0.78691401  1.0
  S2-  S29  1  0.42482905  0.14568821  0.98868914  1.0
  S2-  S29  1  0.45484834  0.26981082  0.19526344  1.0
  S2-  S29  1  0.43400283  0.27042116  0.39329306  1.0
  S2-  S29  1  0.44593857  0.26855068  0.59159406  1.0
  S2-  S29  1  0.45103922  0.27320745  0.79009246  1.0
  S2-  S29  1  0.42737277  0.26657844  0.98755403  1.0
  S2-  S29  1  0.44308817  0.39633530  0.39487568  1.0
  S2-  S29  1  0.42079871  0.39272063  0.58766521  1.0
  S2-  S29  1  0.45204965  0.39411542  0.99736932  1.0
  S2-  S29  1  0.44777668  0.52053128  0.19057202  1.0
  S2-  S29  1  0.44187719  0.52036824  0.38941565  1.0
  S2-  S29  1  0.45492359  0.52215797  0.59836268  1.0
  S2-  S29  1  0.42192621  0.51511467  0.78668667  1.0
  S2-  S29  1  0.44109504  0.52013363  0.98484844  1.0
  S2-  S29  1  0.42727771  0.64504799  0.18491895  1.0
  S2-  S29  1  0.44630301  0.64228266  0.38516757  1.0
  S2-  S29  1  0.42016957  0.64798648  0.59217702  1.0
  S2-  S29  1  0.41996951  0.63777542  0.78137010  1.0
  S2-  S29  1  0.44890320  0.64257058  0.98882412  1.0
  S2-  S29  1  0.44790110  0.76606657  0.18574022  1.0
  S2-  S29  1  0.44241327  0.76837574  0.38529466  1.0
  S2-  S29  1  0.44975715  0.77097827  0.59547448  1.0
  S2-  S29  1  0.43409197  0.76354691  0.78623347  1.0
  S2-  S29  1  0.42310802  0.76267932  0.98320943  1.0
  S2-  S29  1  0.44707739  0.89950179  0.18720774  1.0
  S2-  S29  1  0.44287621  0.88907513  0.39345403  1.0
  S2-  S29  1  0.43306637  0.89319755  0.58676812  1.0
  S2-  S29  1  0.44415445  0.88955923  0.78697902  1.0
  S2-  S29  1  0.44153136  0.90145775  0.98808102  1.0
  S2-  S29  1  0.62061219  0.02481590  0.19236367  1.0
  S2-  S29  1  0.63314214  0.01918446  0.38498182  1.0
  S2-  S29  1  0.62106750  0.01875377  0.58637436  1.0
  S2-  S29  1  0.64145406  0.01611638  0.98458784  1.0
  S2-  S29  1  0.63429017  0.14109077  0.19280558  1.0
  S2-  S29  1  0.64795872  0.14260710  0.39224506  1.0
  S2-  S29  1  0.62731144  0.14278494  0.59436570  1.0
  S2-  S29  1  0.70750861  0.16670756  0.76495805  1.0
  S2-  S29  1  0.63611178  0.13950081  0.98533952  1.0
  S2-  S29  1  0.64476226  0.26920333  0.18998781  1.0
  S2-  S29  1  0.63174672  0.26632916  0.38251602  1.0
  S2-  S29  1  0.64086487  0.27168401  0.58679036  1.0
  S2-  S29  1  0.64154901  0.26933998  0.79421423  1.0
  S2-  S29  1  0.63660296  0.26443734  0.99695646  1.0
  S2-  S29  1  0.65228660  0.39586528  0.18904529  1.0
  S2-  S29  1  0.63349245  0.38965082  0.38506265  1.0
  S2-  S29  1  0.64276818  0.39420729  0.59818391  1.0
  S2-  S29  1  0.65081224  0.39746460  0.79492462  1.0
  S2-  S29  1  0.64413009  0.39577273  0.98139852  1.0
  S2-  S29  1  0.63415297  0.51473111  0.18117035  1.0
  S2-  S29  1  0.64965150  0.51577869  0.38276532  1.0
  S2-  S29  1  0.64476602  0.51906552  0.59216009  1.0
  S2-  S29  1  0.66038564  0.52115737  0.78549542  1.0
  S2-  S29  1  0.64971414  0.51857229  0.99117241  1.0
  S2-  S29  1  0.62617001  0.64593070  0.18265086  1.0
  S2-  S29  1  0.64417525  0.64193210  0.39237687  1.0
  S2-  S29  1  0.62332784  0.63919954  0.58270017  1.0
  S2-  S29  1  0.64019063  0.64055492  0.78880725  1.0
  S2-  S29  1  0.64570011  0.63997297  0.98916631  1.0
  S2-  S29  1  0.64587787  0.76866049  0.18959001  1.0
  S2-  S29  1  0.62840392  0.77071613  0.38925527  1.0
  S2-  S29  1  0.64901485  0.77602279  0.59288738  1.0
  S2-  S29  1  0.64831610  0.77349028  0.79234422  1.0
  S2-  S29  1  0.63518663  0.77058869  0.98643749  1.0
  S2-  S29  1  0.65465485  0.89596810  0.18801357  1.0
  S2-  S29  1  0.62914286  0.89479938  0.38982057  1.0
  S2-  S29  1  0.63112351  0.89685196  0.59297029  1.0
  S2-  S29  1  0.64685625  0.89676085  0.78689174  1.0
  S2-  S29  1  0.63099826  0.89344247  0.98516962  1.0
  S2-  S29  1  0.84860612  0.02191644  0.18852163  1.0
  S2-  S29  1  0.83612905  0.02251681  0.38583259  1.0
  S2-  S29  1  0.83510752  0.01599609  0.58466973  1.0
  S2-  S29  1  0.83005751  0.02347092  0.79526685  1.0
  S2-  S29  1  0.83448558  0.02079963  0.98290412  1.0
  S2-  S29  1  0.84454697  0.14140653  0.19451317  1.0
  S2-  S29  1  0.84505370  0.14309737  0.38768392  1.0
  S2-  S29  1  0.83966334  0.14127642  0.59345326  1.0
  S2-  S29  1  0.84714349  0.14743447  0.78033543  1.0
  S2-  S29  1  0.84202584  0.27009849  0.19021209  1.0
  S2-  S29  1  0.84032058  0.26824223  0.39983158  1.0
  S2-  S29  1  0.84390100  0.26968891  0.59468101  1.0
  S2-  S29  1  0.83151623  0.26508980  0.79092176  1.0
  S2-  S29  1  0.84199820  0.39872708  0.19810862  1.0
  S2-  S29  1  0.81815654  0.39452539  0.39231958  1.0
  S2-  S29  1  0.82472787  0.39548329  0.59154803  1.0
  S2-  S29  1  0.84115045  0.39348094  0.79510479  1.0
  S2-  S29  1  0.82877360  0.39699991  0.99179706  1.0
  S2-  S29  1  0.85112861  0.51619743  0.19639306  1.0
  S2-  S29  1  0.82622120  0.51821200  0.38200927  1.0
  S2-  S29  1  0.84350312  0.51791863  0.59277527  1.0
  S2-  S29  1  0.82287555  0.51783741  0.79540954  1.0
  S2-  S29  1  0.83680106  0.52274421  0.99419441  1.0
  S2-  S29  1  0.82871275  0.64497881  0.19588506  1.0
  S2-  S29  1  0.83486109  0.64203949  0.58949847  1.0
  S2-  S29  1  0.83430247  0.63941087  0.78557033  1.0
  S2-  S29  1  0.83583794  0.64385236  0.97754504  1.0
  S2-  S29  1  0.83964865  0.76396091  0.19055189  1.0
  S2-  S29  1  0.84561391  0.76281406  0.39328122  1.0
  S2-  S29  1  0.84327657  0.77280167  0.59607479  1.0
  S2-  S29  1  0.82402951  0.76650743  0.79409140  1.0
  S2-  S29  1  0.82984464  0.77046654  0.98543207  1.0
  S2-  S29  1  0.83202131  0.89422858  0.19904179  1.0
  S2-  S29  1  0.84547888  0.89085321  0.38951561  1.0
  S2-  S29  1  0.81554267  0.88693644  0.58408920  1.0
  S2-  S29  1  0.85307657  0.89938027  0.79530947  1.0
  S2-  S29  1  0.84010471  0.89318430  0.99159062  1.0
  S2-  S30  1  0.09986942  0.03920901  0.05314251  1.0
  S2-  S30  1  0.09997462  0.03849921  0.25674130  1.0
  S2-  S30  1  0.10837789  0.04210848  0.46710800  1.0
  S2-  S30  1  0.11519660  0.03955147  0.66272932  1.0
  S2-  S30  1  0.11572928  0.04197302  0.86176684  1.0
  S2-  S30  1  0.13162095  0.16674319  0.06092723  1.0
  S2-  S30  1  0.10915513  0.16936070  0.45665048  1.0
  S2-  S30  1  0.12167862  0.16017039  0.66510473  1.0
  S2-  S30  1  0.12068786  0.16498750  0.85794108  1.0
  S2-  S30  1  0.13198505  0.29728945  0.06337802  1.0
  S2-  S30  1  0.12293695  0.29461532  0.26682137  1.0
  S2-  S30  1  0.11343368  0.29014969  0.46205662  1.0
  S2-  S30  1  0.09747155  0.29579342  0.65353641  1.0
  S2-  S30  1  0.10469339  0.29032093  0.85509404  1.0
  S2-  S30  1  0.10723355  0.42101757  0.07134614  1.0
  S2-  S30  1  0.13214362  0.41914578  0.27646373  1.0
  S2-  S30  1  0.11032198  0.41523955  0.66048068  1.0
  S2-  S30  1  0.13017661  0.41833214  0.87235927  1.0
  S2-  S30  1  0.11009699  0.53653389  0.25543927  1.0
  S2-  S30  1  0.12278549  0.53980795  0.46209838  1.0
  S2-  S30  1  0.12218529  0.54731783  0.66933891  1.0
  S2-  S30  1  0.12140910  0.54193619  0.85857475  1.0
  S2-  S30  1  0.12328623  0.67351648  0.06830517  1.0
  S2-  S30  1  0.10730354  0.66505585  0.26671036  1.0
  S2-  S30  1  0.10816928  0.66576615  0.45502668  1.0
  S2-  S30  1  0.11280233  0.66796356  0.66061207  1.0
  S2-  S30  1  0.96817935  0.87213094  0.03463241  1.0
  S2-  S30  1  0.13495063  0.79098411  0.26532061  1.0
  S2-  S30  1  0.10626576  0.79158968  0.45932853  1.0
  S2-  S30  1  0.12772602  0.79488542  0.67030230  1.0
  S2-  S30  1  0.12124529  0.79807333  0.86923496  1.0
  S2-  S30  1  0.10464239  0.92145132  0.06272540  1.0
  S2-  S30  1  0.12218460  0.91298759  0.26036907  1.0
  S2-  S30  1  0.12234113  0.91721663  0.46204236  1.0
  S2-  S30  1  0.08728794  0.91400821  0.65257515  1.0
  S2-  S30  1  0.08929296  0.91112974  0.86204574  1.0
  S2-  S30  1  0.32305210  0.03869731  0.05836009  1.0
  S2-  S30  1  0.31060731  0.04388663  0.26412427  1.0
  S2-  S30  1  0.30514753  0.03947523  0.46458839  1.0
  S2-  S30  1  0.32651873  0.03849697  0.66089216  1.0
  S2-  S30  1  0.31479689  0.04080460  0.86656123  1.0
  S2-  S30  1  0.31851644  0.17264379  0.07059742  1.0
  S2-  S30  1  0.30746665  0.16663895  0.25614738  1.0
  S2-  S30  1  0.14138853  0.35586959  0.22435979  1.0
  S2-  S30  1  0.33137270  0.16243600  0.66133742  1.0
  S2-  S30  1  0.30807737  0.16539009  0.86044098  1.0
  S2-  S30  1  0.26774431  0.44151479  0.94880900  1.0
  S2-  S30  1  0.29514261  0.29596352  0.27334744  1.0
  S2-  S30  1  0.31409769  0.28942964  0.45776256  1.0
  S2-  S30  1  0.31237222  0.29282464  0.65987655  1.0
  S2-  S30  1  0.31033604  0.28830362  0.85733905  1.0
  S2-  S30  1  0.30988202  0.41630461  0.05399742  1.0
  S2-  S30  1  0.31014760  0.41572155  0.26151306  1.0
  S2-  S30  1  0.32773578  0.41609048  0.45706467  1.0
  S2-  S30  1  0.31321768  0.41410951  0.85673920  1.0
  S2-  S30  1  0.30953802  0.53972695  0.25504975  1.0
  S2-  S30  1  0.31068162  0.54290712  0.46193810  1.0
  S2-  S30  1  0.30152958  0.53861497  0.65922660  1.0
  S2-  S30  1  0.30147151  0.53849639  0.85587617  1.0
  S2-  S30  1  0.30472503  0.66674951  0.05905340  1.0
  S2-  S30  1  0.32449621  0.66263207  0.26624875  1.0
  S2-  S30  1  0.32110552  0.67128361  0.47097313  1.0
  S2-  S30  1  0.30546540  0.66182642  0.65753824  1.0
  S2-  S30  1  0.29644213  0.79357227  0.06115284  1.0
  S2-  S30  1  0.30673342  0.78995489  0.25504120  1.0
  S2-  S30  1  0.31070128  0.78818606  0.45931150  1.0
  S2-  S30  1  0.31964568  0.79354086  0.86518458  1.0
  S2-  S30  1  0.31251035  0.91786931  0.06257704  1.0
  S2-  S30  1  0.31217781  0.91307352  0.25369231  1.0
  S2-  S30  1  0.31818803  0.91800704  0.45971268  1.0
  S2-  S30  1  0.33269419  0.92363935  0.67531266  1.0
  S2-  S30  1  0.31009867  0.91500889  0.86401651  1.0
  S2-  S30  1  0.74589612  0.28689990  0.21946668  1.0
  S2-  S30  1  0.51725683  0.03703969  0.25610521  1.0
  S2-  S30  1  0.50694219  0.04011895  0.45255326  1.0
  S2-  S30  1  0.51873198  0.03902685  0.66176705  1.0
  S2-  S30  1  0.51190720  0.03812159  0.85123242  1.0
  S2-  S30  1  0.51363817  0.16499994  0.06284856  1.0
  S2-  S30  1  0.51586641  0.15977228  0.25734922  1.0
  S2-  S30  1  0.52896038  0.17110822  0.45669617  1.0
  S2-  S30  1  0.52245390  0.16312881  0.66414691  1.0
  S2-  S30  1  0.51095082  0.16885609  0.86051878  1.0
  S2-  S30  1  0.49795107  0.28952484  0.06122681  1.0
  S2-  S30  1  0.50655534  0.28792106  0.25286655  1.0
  S2-  S30  1  0.50348962  0.28875329  0.46165214  1.0
  S2-  S30  1  0.50923319  0.29044692  0.65955069  1.0
  S2-  S30  1  0.52147060  0.29349893  0.86076972  1.0
  S2-  S30  1  0.51346850  0.41851626  0.05906253  1.0
  S2-  S30  1  0.51063494  0.41850947  0.25931195  1.0
  S2-  S30  1  0.51166248  0.41126950  0.46144296  1.0
  S2-  S30  1  0.51336534  0.41774771  0.66727661  1.0
  S2-  S30  1  0.50600876  0.41141954  0.85639079  1.0
  S2-  S30  1  0.52674408  0.54197490  0.05809827  1.0
  S2-  S30  1  0.51368791  0.54301183  0.26154625  1.0
  S2-  S30  1  0.50931166  0.53857835  0.45677538  1.0
  S2-  S30  1  0.51785311  0.54302704  0.66180378  1.0
  S2-  S30  1  0.51152895  0.54388764  0.86030687  1.0
  S2-  S30  1  0.51864585  0.66815927  0.05679360  1.0
  S2-  S30  1  0.52910049  0.80050437  0.46910562  1.0
  S2-  S30  1  0.52093019  0.66751976  0.46652102  1.0
  S2-  S30  1  0.51591290  0.66465234  0.65349860  1.0
  S2-  S30  1  0.51672056  0.79298247  0.05415235  1.0
  S2-  S30  1  0.51840443  0.79170713  0.26032863  1.0
  S2-  S30  1  0.51668953  0.78970140  0.45902606  1.0
  S2-  S30  1  0.50268386  0.79274088  0.65456780  1.0
  S2-  S30  1  0.50869838  0.79290742  0.86072643  1.0
  S2-  S30  1  0.53299053  0.91835442  0.06807052  1.0
  S2-  S30  1  0.52186966  0.91563405  0.25941983  1.0
  S2-  S30  1  0.49748029  0.91168058  0.46268535  1.0
  S2-  S30  1  0.26416517  0.13842272  0.68488232  1.0
  S2-  S30  1  0.51622288  0.92055522  0.86490839  1.0
  S2-  S30  1  0.71519835  0.03950897  0.05636170  1.0
  S2-  S30  1  0.71015632  0.03774997  0.25870721  1.0
  S2-  S30  1  0.71995068  0.03728891  0.46315630  1.0
  S2-  S30  1  0.64427094  0.18263114  0.57463275  1.0
  S2-  S30  1  0.70835838  0.04040989  0.86415756  1.0
  S2-  S30  1  0.55103934  0.22931319  0.12643343  1.0
  S2-  S30  1  0.71228494  0.16241994  0.26433889  1.0
  S2-  S30  1  0.70488212  0.16609442  0.46425394  1.0
  S2-  S30  1  0.70207126  0.16845773  0.65538060  1.0
  S2-  S30  1  0.72377331  0.17034313  0.86091934  1.0
  S2-  S30  1  0.70568799  0.29166897  0.05632542  1.0
  S2-  S30  1  0.69231259  0.29133847  0.26047937  1.0
  S2-  S30  1  0.71117966  0.29178979  0.46623386  1.0
  S2-  S30  1  0.83831297  0.47729104  0.82103694  1.0
  S2-  S30  1  0.70929141  0.29015148  0.86826297  1.0
  S2-  S30  1  0.71443506  0.41545305  0.06755416  1.0
  S2-  S30  1  0.95514544  0.54241489  0.02146422  1.0
  S2-  S30  1  0.73648533  0.41131474  0.45310857  1.0
  S2-  S30  1  0.71681287  0.41525704  0.64945096  1.0
  S2-  S30  1  0.71294500  0.41667823  0.86062002  1.0
  S2-  S30  1  0.71565745  0.53988896  0.06021365  1.0
  S2-  S30  1  0.73012968  0.54454794  0.26376994  1.0
  S2-  S30  1  0.72228665  0.54427006  0.45928823  1.0
  S2-  S30  1  0.71788484  0.54193079  0.66521637  1.0
  S2-  S30  1  0.70458366  0.54130950  0.85671189  1.0
  S2-  S30  1  0.71484997  0.66372983  0.05764070  1.0
  S2-  S30  1  0.71240412  0.66335468  0.25211298  1.0
  S2-  S30  1  0.72246706  0.66432274  0.45475093  1.0
  S2-  S30  1  0.70273797  0.66609569  0.66743610  1.0
  S2-  S30  1  0.71452242  0.66832185  0.86056539  1.0
  S2-  S30  1  0.71531475  0.79074693  0.06394076  1.0
  S2-  S30  1  0.70304290  0.79166625  0.26100537  1.0
  S2-  S30  1  0.71386871  0.78703209  0.45704359  1.0
  S2-  S30  1  0.72079935  0.79215747  0.67075364  1.0
  S2-  S30  1  0.70264762  0.78494033  0.85480316  1.0
  S2-  S30  1  0.68973966  0.91871084  0.25971958  1.0
  S2-  S30  1  0.71980923  0.91823948  0.46787336  1.0
  S2-  S30  1  0.50296195  0.98932047  0.76338801  1.0
  S2-  S30  1  0.71169351  0.91707183  0.86205279  1.0
  S2-  S30  1  0.91099664  0.03632364  0.05486600  1.0
  S2-  S30  1  0.91042001  0.04092955  0.25839975  1.0
  S2-  S30  1  0.91309280  0.03769924  0.65724293  1.0
  S2-  S30  1  0.91975530  0.04208778  0.86062440  1.0
  S2-  S30  1  0.90912680  0.16486841  0.05852659  1.0
  S2-  S30  1  0.90794687  0.16523260  0.26155219  1.0
  S2-  S30  1  0.91276359  0.16213929  0.46770480  1.0
  S2-  S30  1  0.91014461  0.16795011  0.65663164  1.0
  S2-  S30  1  0.93036335  0.16817615  0.86593812  1.0
  S2-  S30  1  0.66008781  0.19200672  0.09498623  1.0
  S2-  S30  1  0.92161797  0.29037260  0.26404958  1.0
  S2-  S30  1  0.89510724  0.28520339  0.45635194  1.0
  S2-  S30  1  0.90465035  0.28984713  0.65934086  1.0
  S2-  S30  1  0.90201435  0.29115948  0.85468976  1.0
  S2-  S30  1  0.92388884  0.41609378  0.06488672  1.0
  S2-  S30  1  0.89825995  0.41834431  0.26762259  1.0
  S2-  S30  1  0.91689972  0.41812380  0.46143435  1.0
  S2-  S30  1  0.92282356  0.42164276  0.67555965  1.0
  S2-  S30  1  0.91409728  0.41309563  0.86278351  1.0
  S2-  S30  1  0.89982038  0.53938465  0.05640068  1.0
  S2-  S30  1  0.93890058  0.54608029  0.47227900  1.0
  S2-  S30  1  0.91946525  0.53845851  0.86173895  1.0
  S2-  S30  1  0.93382367  0.66788050  0.06925887  1.0
  S2-  S30  1  0.90029362  0.66877517  0.25598153  1.0
  S2-  S30  1  0.91632114  0.67105851  0.46554458  1.0
  S2-  S30  1  0.92165659  0.66581774  0.65288280  1.0
  S2-  S30  1  0.89974427  0.66956656  0.86152621  1.0
  S2-  S30  1  0.93107605  0.79183388  0.05933908  1.0
  S2-  S30  1  0.91694795  0.79467510  0.25499125  1.0
  S2-  S30  1  0.91363262  0.78731029  0.46017353  1.0
  S2-  S30  1  0.75154627  0.85482989  0.53020674  1.0
  S2-  S30  1  0.91820066  0.79309589  0.86529413  1.0
  S2-  S30  1  0.90403691  0.91600527  0.04843297  1.0
  S2-  S30  1  0.90930914  0.90744758  0.26059931  1.0
  S2-  S30  1  0.93214180  0.91804744  0.46736115  1.0
  S2-  S30  1  0.13133150  0.70859193  0.60558461  1.0
  S2-  S30  1  0.91087478  0.91393296  0.86022821  1.0
  S2-  S31  1  0.17997468  0.01884644  0.07572737  1.0
  S2-  S31  1  0.15691386  0.01985546  0.27488250  1.0
  S2-  S31  1  0.17754571  0.02279200  0.49002271  1.0
  S2-  S31  1  0.40768905  0.04306458  0.07258006  1.0
  S2-  S31  1  0.18740195  0.14243252  0.47482267  1.0
  S2-  S31  1  0.16364724  0.26301123  0.07422528  1.0
  S2-  S31  1  0.16920398  0.27122514  0.46768649  1.0
  S2-  S31  1  0.17755598  0.26957058  0.67659639  1.0
  S2-  S31  1  0.18637437  0.26778202  0.88076695  1.0
  S2-  S31  1  0.39885607  0.25541045  0.20181210  1.0
  S2-  S31  1  0.18755552  0.39739432  0.28709716  1.0
  S2-  S31  1  0.17628237  0.20360951  0.57947025  1.0
  S2-  S31  1  0.96832080  0.20762107  0.91770493  1.0
  S2-  S31  1  0.19037605  0.52503817  0.08287082  1.0
  S2-  S31  1  0.18733022  0.52076199  0.28103802  1.0
  S2-  S31  1  0.40884796  0.29190950  0.67144002  1.0
  S2-  S31  1  0.17851932  0.52457298  0.67670047  1.0
  S2-  S31  1  0.19521571  0.64470324  0.28101457  1.0
  S2-  S31  1  0.17393402  0.64674120  0.87801839  1.0
  S2-  S31  1  0.17608498  0.77240501  0.08586325  1.0
  S2-  S31  1  0.17109461  0.77309837  0.28603481  1.0
  S2-  S31  1  0.15868935  0.76764679  0.68189016  1.0
  S2-  S31  1  0.41572624  0.87973626  0.03262594  1.0
  S2-  S31  1  0.17790664  0.89984566  0.07778705  1.0
  S2-  S31  1  0.00323118  0.86720796  0.25251785  1.0
  S2-  S31  1  0.17177649  0.89625614  0.47794516  1.0
  S2-  S31  1  0.16070648  0.89390233  0.66919080  1.0
  S2-  S31  1  0.16860922  0.89148736  0.88033950  1.0
  S2-  S31  1  0.38669891  0.02542374  0.07866220  1.0
  S2-  S31  1  0.57328176  0.96396485  0.42626121  1.0
  S2-  S31  1  0.47714606  0.91145906  0.33617864  1.0
  S2-  S31  1  0.17707472  0.97104148  0.43623648  1.0
  S2-  S31  1  0.50153951  0.25220194  0.69978324  1.0
  S2-  S31  1  0.44493098  0.97641238  0.00056403  1.0
  S2-  S31  1  0.38819858  0.27219604  0.28299224  1.0
  S2-  S31  1  0.38152911  0.26775649  0.47670251  1.0
  S2-  S31  1  0.39609636  0.27107134  0.67870170  1.0
  S2-  S31  1  0.37586237  0.26866394  0.88279863  1.0
  S2-  S31  1  0.37346500  0.39554993  0.27604075  1.0
  S2-  S31  1  0.40289516  0.39745800  0.48625056  1.0
  S2-  S31  1  0.38465327  0.39411907  0.68697473  1.0
  S2-  S31  1  0.60479088  0.30859330  0.04979594  1.0
  S2-  S31  1  0.38657452  0.52095004  0.08213638  1.0
  S2-  S31  1  0.35921025  0.51719960  0.48309021  1.0
  S2-  S31  1  0.59790604  0.73237897  0.98194781  1.0
  S2-  S31  1  0.58753853  0.46433772  0.28912154  1.0
  S2-  S31  1  0.38270672  0.64662779  0.67991146  1.0
  S2-  S31  1  0.37521299  0.76869335  0.08049179  1.0
  S2-  S31  1  0.40529214  0.77505147  0.28594563  1.0
  S2-  S31  1  0.38478060  0.77012752  0.48699978  1.0
  S2-  S31  1  0.36864376  0.77670203  0.67899090  1.0
  S2-  S31  1  0.26736409  0.65103510  0.02907633  1.0
  S2-  S31  1  0.37574749  0.89920035  0.08438339  1.0
  S2-  S31  1  0.26927736  0.76754609  0.47422007  1.0
  S2-  S31  1  0.36862129  0.89449434  0.67413719  1.0
  S2-  S31  1  0.38902235  0.89378079  0.88283598  1.0
  S2-  S31  1  0.57898366  0.01436265  0.08022319  1.0
  S2-  S31  1  0.55930691  0.01768669  0.27934540  1.0
  S2-  S31  1  0.57910750  0.01929576  0.47078102  1.0
  S2-  S31  1  0.62233348  0.91134937  0.89462059  1.0
  S2-  S31  1  0.57252380  0.14875486  0.08202699  1.0
  S2-  S31  1  0.45324615  0.35144110  0.21667685  1.0
  S2-  S31  1  0.81668834  0.06166380  0.43101238  1.0
  S2-  S31  1  0.55736227  0.09678377  0.42901275  1.0
  S2-  S31  1  0.47318756  0.33535180  0.07726571  1.0
  S2-  S31  1  0.56201505  0.27174247  0.27126346  1.0
  S2-  S31  1  0.60040093  0.43853578  0.29922657  1.0
  S2-  S31  1  0.58101559  0.27546385  0.68980586  1.0
  S2-  S31  1  0.61484582  0.44396389  0.25476774  1.0
  S2-  S31  1  0.57835243  0.39513864  0.28766910  1.0
  S2-  S31  1  0.57386805  0.39204611  0.47476139  1.0
  S2-  S31  1  0.50292430  0.31166147  0.10141775  1.0
  S2-  S31  1  0.57873874  0.52276970  0.08042622  1.0
  S2-  S31  1  0.56571198  0.51927484  0.28814918  1.0
  S2-  S31  1  0.58816822  0.51629359  0.48577609  1.0
  S2-  S31  1  0.75292515  0.32290979  0.81810815  1.0
  S2-  S31  1  0.58285721  0.64894134  0.08277626  1.0
  S2-  S31  1  0.58601102  0.64935638  0.28054682  1.0
  S2-  S31  1  0.58330103  0.64683726  0.48155745  1.0
  S2-  S31  1  0.51266635  0.41432878  0.77325316  1.0
  S2-  S31  1  0.59588992  0.87648272  0.70123591  1.0
  S2-  S31  1  0.50212204  0.62067453  0.05906080  1.0
  S2-  S31  1  0.57222230  0.77301265  0.27963460  1.0
  S2-  S31  1  0.66980862  0.81008995  0.57574445  1.0
  S2-  S31  1  0.40440249  0.98919794  0.05438680  1.0
  S2-  S31  1  0.59041457  0.89317896  0.08041172  1.0
  S2-  S31  1  0.56577110  0.89813021  0.28581776  1.0
  S2-  S31  1  0.57958711  0.89202940  0.48583927  1.0
  S2-  S31  1  0.72874457  0.66517451  0.57296743  1.0
  S2-  S31  1  0.58558664  0.03259041  0.73379695  1.0
  S2-  S31  1  0.79333721  0.01447777  0.07079807  1.0
  S2-  S31  1  0.78418414  0.02609209  0.28854905  1.0
  S2-  S31  1  0.77286721  0.02967903  0.48610604  1.0
  S2-  S31  1  0.76714388  0.02010558  0.88282008  1.0
  S2-  S31  1  0.79120609  0.14519084  0.08350777  1.0
  S2-  S31  1  0.95938422  0.02620984  0.53045515  1.0
  S2-  S31  1  0.78975266  0.14169652  0.67809352  1.0
  S2-  S31  1  0.76978463  0.14211871  0.87209883  1.0
  S2-  S31  1  0.77583564  0.26690818  0.47246592  1.0
  S2-  S31  1  0.70500544  0.47588877  0.06969441  1.0
  S2-  S31  1  0.77042942  0.39151046  0.08790619  1.0
  S2-  S31  1  0.75985481  0.39817590  0.28034094  1.0
  S2-  S31  1  0.77126508  0.39244577  0.48562193  1.0
  S2-  S31  1  0.75355106  0.47914609  0.82687691  1.0
  S2-  S31  1  0.78941259  0.51960374  0.08331150  1.0
  S2-  S31  1  0.78460166  0.52052772  0.28122284  1.0
  S2-  S31  1  0.86938419  0.47527299  0.40547934  1.0
  S2-  S31  1  0.67790411  0.59218979  0.74644611  1.0
  S2-  S31  1  0.79984507  0.54721479  0.83210151  1.0
  S2-  S31  1  0.78754797  0.64586669  0.08776151  1.0
  S2-  S31  1  0.77212364  0.64501274  0.48008851  1.0
  S2-  S31  1  0.99901358  0.86548316  0.95142150  1.0
  S2-  S31  1  0.77227102  0.77215296  0.08846550  1.0
  S2-  S31  1  0.78981329  0.76451669  0.47583967  1.0
  S2-  S31  1  0.78579080  0.89957346  0.08350880  1.0
  S2-  S31  1  0.01460784  0.73820040  0.45034421  1.0
  S2-  S31  1  0.61154836  0.99466644  0.25583121  1.0
  S2-  S31  1  0.67860337  0.85659289  0.70705276  1.0
  S2-  S31  1  0.89909239  0.79960618  0.94339104  1.0
  S2-  S31  1  0.97017425  0.01304746  0.07455554  1.0
  S2-  S31  1  0.96783127  0.01696184  0.27726794  1.0
  S2-  S31  1  0.97610567  0.14651970  0.07687227  1.0
  S2-  S31  1  0.98481230  0.15342423  0.28719751  1.0
  S2-  S31  1  0.97433600  0.14944802  0.48847496  1.0
  S2-  S31  1  0.20746572  0.92533327  0.85268022  1.0
  S2-  S31  1  0.97736255  0.27481137  0.28052390  1.0
  S2-  S31  1  0.97776232  0.27211505  0.48709561  1.0
  S2-  S31  1  0.00262195  0.27049410  0.68054769  1.0
  S2-  S31  1  0.96613030  0.39057333  0.07119140  1.0
  S2-  S31  1  0.98454905  0.39884542  0.67774556  1.0
  S2-  S31  1  0.98409134  0.39259517  0.87547311  1.0
  S2-  S31  1  0.76103042  0.48981569  0.09192961  1.0
  S2-  S31  1  0.96913452  0.51776724  0.48029653  1.0
  S2-  S31  1  0.00117045  0.52566929  0.68297688  1.0
  S2-  S31  1  0.97297379  0.51656023  0.87618990  1.0
  S2-  S31  1  0.97568877  0.57850412  0.17467438  1.0
  S2-  S31  1  0.90732989  0.59912601  0.26892893  1.0
  S2-  S31  1  0.99086864  0.64726498  0.47963843  1.0
  S2-  S31  1  0.81600059  0.87952473  0.80550279  1.0
  S2-  S31  1  0.77848077  0.64338502  0.97678908  1.0
  S2-  S31  1  0.99536183  0.77643720  0.28253832  1.0
  S2-  S31  1  0.97520061  0.76829523  0.47625644  1.0
  S2-  S31  1  0.96770933  0.77180558  0.67311637  1.0
  S2-  S31  1  0.97326340  0.77020665  0.87276868  1.0
  S2-  S31  1  0.88878449  0.80883000  0.90216475  1.0
  S2-  S31  1  0.18674892  0.77744854  0.44432169  1.0
  S2-  S31  1  0.96829039  0.89402567  0.48018882  1.0
  S2-  S31  1  0.10707203  0.06092422  0.80650193  1.0
  S2-  S32  1  0.06024583  0.04916713  0.51413332  1.0
  S2-  S32  1  0.03448539  0.04606893  0.90727000  1.0
  S2-  S32  1  0.04924015  0.17446367  0.51321801  1.0
  S2-  S32  1  0.19259765  0.24820830  0.09808099  1.0
  S2-  S32  1  0.83120243  0.32702430  0.31476064  1.0
  S2-  S32  1  0.83714408  0.48698885  0.81607843  1.0
  S2-  S32  1  0.82387648  0.24712544  0.85398239  1.0
  S2-  S32  1  0.21380200  0.56574077  0.40619370  1.0
  S2-  S32  1  0.05208365  0.42778031  0.51466348  1.0
  S2-  S32  1  0.90658085  0.54144329  0.74117622  1.0
  S2-  S32  1  0.91634101  0.30980422  0.09506242  1.0
  S2-  S32  1  0.97952629  0.79636134  0.38735468  1.0
  S2-  S32  1  0.80809933  0.88886453  0.07216948  1.0
  S2-  S32  1  0.05370741  0.67197137  0.31331722  1.0
  S2-  S32  1  0.81013110  0.47934707  0.73737435  1.0
  S2-  S32  1  0.05960737  0.67085122  0.91786605  1.0
  S2-  S32  1  0.04825665  0.79680073  0.12226519  1.0
  S2-  S32  1  0.10083970  0.93735454  0.59399419  1.0
  S2-  S32  1  0.97954065  0.95179486  0.56527486  1.0
  S2-  S32  1  0.02569226  0.79993540  0.91229175  1.0
  S2-  S32  1  0.05934348  0.92777631  0.11778116  1.0
  S2-  S32  1  0.04063689  0.92211378  0.30684115  1.0
  S2-  S32  1  0.99166934  0.76147641  0.35867348  1.0
  S2-  S32  1  0.04260740  0.92356559  0.91370272  1.0
  S2-  S32  1  0.33895435  0.05374399  0.11872501  1.0
  S2-  S32  1  0.09898517  0.16574602  0.64496040  1.0
  S2-  S32  1  0.24958181  0.19433335  0.77163749  1.0
  S2-  S32  1  0.25480703  0.05342588  0.92099060  1.0
  S2-  S32  1  0.03664605  0.37857488  0.36935956  1.0
  S2-  S32  1  0.32209700  0.93524383  0.68931539  1.0
  S2-  S32  1  0.31286084  0.18384880  0.90522448  1.0
  S2-  S32  1  0.10625470  0.49136967  0.22631935  1.0
  S2-  S32  1  0.16253247  0.11843846  0.73677832  1.0
  S2-  S32  1  0.21620771  0.35396414  0.24269149  1.0
  S2-  S32  1  0.25140611  0.60738690  0.31099711  1.0
  S2-  S32  1  0.33745431  0.37394831  0.49379794  1.0
  S2-  S32  1  0.22507593  0.62665952  0.46639797  1.0
  S2-  S32  1  0.24702856  0.42330665  0.91145273  1.0
  S2-  S32  1  0.10790948  0.60999169  0.25703525  1.0
  S2-  S32  1  0.25970181  0.54706622  0.51469776  1.0
  S2-  S32  1  0.25449975  0.54662229  0.71038589  1.0
  S2-  S32  1  0.35029755  0.54793291  0.00677679  1.0
  S2-  S32  1  0.00619601  0.53816324  0.89887656  1.0
  S2-  S32  1  0.28252765  0.81051414  0.50567892  1.0
  S2-  S32  1  0.14235804  0.86116761  0.81324419  1.0
  S2-  S32  1  0.24463845  0.79818685  0.11958270  1.0
  S2-  S32  1  0.24219995  0.80270224  0.52374793  1.0
  S2-  S32  1  0.24431793  0.79604482  0.71306459  1.0
  S2-  S32  1  0.02828824  0.78913368  0.82721928  1.0
  S2-  S32  1  0.03948589  0.79617291  0.10287129  1.0
  S2-  S32  1  0.23773821  0.92658456  0.31967366  1.0
  S2-  S32  1  0.30533519  0.96935288  0.69547481  1.0
  S2-  S32  1  0.01934725  0.85870978  0.95132023  1.0
  S2-  S32  1  0.46808338  0.05477237  0.11863382  1.0
  S2-  S32  1  0.42565962  0.04577516  0.31544056  1.0
  S2-  S32  1  0.19181483  0.10854250  0.64625807  1.0
  S2-  S32  1  0.43216736  0.17527290  0.31197267  1.0
  S2-  S32  1  0.48107342  0.29952678  0.36322298  1.0
  S2-  S32  1  0.60470949  0.22459144  0.69588900  1.0
  S2-  S32  1  0.68619426  0.26214644  0.10682628  1.0
  S2-  S32  1  0.45309821  0.29367951  0.11218254  1.0
  S2-  S32  1  0.63951816  0.42854132  0.38405611  1.0
  S2-  S32  1  0.43323698  0.44959405  0.61619680  1.0
  S2-  S32  1  0.43300316  0.29879508  0.71659272  1.0
  S2-  S32  1  0.42081183  0.11087493  0.75101718  1.0
  S2-  S32  1  0.40056123  0.18325737  0.33393944  1.0
  S2-  S32  1  0.44934018  0.55439283  0.32011075  1.0
  S2-  S32  1  0.59757936  0.40930431  0.76527429  1.0
  S2-  S32  1  0.38261825  0.56069513  0.10254753  1.0
  S2-  S32  1  0.25811112  0.42539418  0.61798619  1.0
  S2-  S32  1  0.63737045  0.46978779  0.95286166  1.0
  S2-  S32  1  0.44467589  0.80497388  0.31842552  1.0
  S2-  S32  1  0.43751645  0.81395577  0.55311439  1.0
  S2-  S32  1  0.44670206  0.79784088  0.91796500  1.0
  S2-  S32  1  0.58924638  0.99826762  0.30323963  1.0
  S2-  S32  1  0.50124339  0.24673450  0.89873922  1.0
  S2-  S32  1  0.46171352  0.93157903  0.08812594  1.0
  S2-  S32  1  0.71746098  0.29569914  0.75666825  1.0
  S2-  S32  1  0.65415579  0.05241779  0.72341686  1.0
  S2-  S32  1  0.63896406  0.17250869  0.10589059  1.0
  S2-  S32  1  0.43763718  0.42019376  0.41273159  1.0
  S2-  S32  1  0.64068091  0.17759973  0.71858336  1.0
  S2-  S32  1  0.64295704  0.42764525  0.11588559  1.0
  S2-  S32  1  0.72165738  0.29644033  0.30686128  1.0
  S2-  S32  1  0.73495700  0.19122721  0.66247612  1.0
  S2-  S32  1  0.85204744  0.67702766  0.21299501  1.0
  S2-  S32  1  0.63926327  0.55358417  0.32811247  1.0
  S2-  S32  1  0.63718450  0.55236755  0.71372724  1.0
  S2-  S32  1  0.64758671  0.54635363  0.90676905  1.0
  S2-  S32  1  0.49448799  0.60521055  0.24466173  1.0
  S2-  S32  1  0.65064216  0.79674329  0.51021189  1.0
  S2-  S32  1  0.72227059  0.95276001  0.56583600  1.0
  S2-  S32  1  0.64808629  0.11690229  0.28613793  1.0
  S2-  S32  1  0.43289556  0.69214026  0.36908033  1.0
  S2-  S32  1  0.64344141  0.91701843  0.71486894  1.0
  S2-  S32  1  0.64158706  0.92574890  0.91218439  1.0
  S2-  S32  1  0.67254681  0.18043092  0.17079128  1.0
  S2-  S32  1  0.01397418  0.05568453  0.62798415  1.0
  S2-  S32  1  0.70361355  0.16541031  0.83297511  1.0
  S2-  S32  1  0.92764282  0.95529689  0.02485249  1.0
  S2-  S32  1  0.75033449  0.28891135  0.40595244  1.0
  S2-  S32  1  0.99650590  0.04800465  0.94614658  1.0
  S2-  S32  1  0.86779842  0.17226580  0.91413682  1.0
  S2-  S32  1  0.59540034  0.16126060  0.06992722  1.0
  S2-  S32  1  0.82859085  0.48910006  0.61109964  1.0
  S2-  S32  1  0.83086651  0.29489171  0.71471497  1.0
  S2-  S32  1  0.84485725  0.29756311  0.91665260  1.0
  S2-  S32  1  0.91967509  0.35014814  0.10687727  1.0
  S2-  S32  1  0.05198349  0.36826322  0.12446417  1.0
  S2-  S32  1  0.60336435  0.21540179  0.56405330  1.0
  S2-  S32  1  0.84693418  0.42516439  0.71392604  1.0
  S2-  S32  1  0.65267232  0.30200235  0.40806612  1.0
  S2-  S32  1  0.95272935  0.60714639  0.71054444  1.0
  S2-  S32  1  0.83271263  0.54710757  0.91649845  1.0
  S2-  S32  1  0.84714228  0.67668746  0.31819146  1.0
  S2-  S32  1  0.98069400  0.74153185  0.62766158  1.0
  S2-  S32  1  0.84489743  0.79373252  0.31600876  1.0
  S2-  S32  1  0.00315087  0.74686015  0.50079130  1.0
  S2-  S32  1  0.84305202  0.80106577  0.70591030  1.0
  S2-  S32  1  0.84396142  0.80331192  0.91816429  1.0
  S2-  S32  1  0.01460693  0.98128869  0.05126352  1.0
  S2-  S32  1  0.67300278  0.69923005  0.40202348  1.0
  S2-  S32  1  0.76328384  0.05354986  0.51329042  1.0
  S2-  S33  1  0.15850250  0.01906801  0.01881083  1.0
  S2-  S33  1  0.18179846  0.02870819  0.21848596  1.0
  S2-  S33  1  0.17407342  0.02205706  0.41943624  1.0
  S2-  S33  1  0.16174275  0.02788659  0.61484377  1.0
  S2-  S33  1  0.16207279  0.02316020  0.82250976  1.0
  S2-  S33  1  0.17523361  0.14421006  0.02289968  1.0
  S2-  S33  1  0.16503479  0.14721328  0.21803907  1.0
  S2-  S33  1  0.17114507  0.14635554  0.42105117  1.0
  S2-  S33  1  0.16145767  0.14829690  0.61402357  1.0
  S2-  S33  1  0.16123279  0.14457845  0.81793591  1.0
  S2-  S33  1  0.16713295  0.27490910  0.02486628  1.0
  S2-  S33  1  0.16898427  0.27264543  0.21997023  1.0
  S2-  S33  1  0.15390541  0.26585674  0.41902918  1.0
  S2-  S33  1  0.17192664  0.27599677  0.62019021  1.0
  S2-  S33  1  0.17751023  0.27145656  0.81856651  1.0
  S2-  S33  1  0.18208056  0.39826885  0.03058239  1.0
  S2-  S33  1  0.17776803  0.40180354  0.23048226  1.0
  S2-  S33  1  0.16380715  0.39821072  0.42128229  1.0
  S2-  S33  1  0.17052619  0.39360780  0.62196242  1.0
  S2-  S33  1  0.17259412  0.39485514  0.81577734  1.0
  S2-  S33  1  0.05822666  0.28763896  0.19999458  1.0
  S2-  S33  1  0.17903151  0.52140386  0.22662832  1.0
  S2-  S33  1  0.17786526  0.52893763  0.43174904  1.0
  S2-  S33  1  0.16862566  0.52309255  0.62426221  1.0
  S2-  S33  1  0.19248739  0.52230302  0.81727936  1.0
  S2-  S33  1  0.16598634  0.64499279  0.02026053  1.0
  S2-  S33  1  0.17858424  0.64872603  0.21968153  1.0
  S2-  S33  1  0.16019971  0.64360494  0.42397271  1.0
  S2-  S33  1  0.17033796  0.64353283  0.63099454  1.0
  S2-  S33  1  0.16429240  0.64804590  0.81893076  1.0
  S2-  S33  1  0.17001915  0.77238886  0.01425249  1.0
  S2-  S33  1  0.17466606  0.76938141  0.22430268  1.0
  S2-  S33  1  0.16342199  0.77228864  0.42234896  1.0
  S2-  S33  1  0.16921844  0.77450787  0.61843978  1.0
  S2-  S33  1  0.17267444  0.76872136  0.81509489  1.0
  S2-  S33  1  0.17457411  0.90050489  0.02422686  1.0
  S2-  S33  1  0.17782727  0.89436364  0.21479690  1.0
  S2-  S33  1  0.17427705  0.89748097  0.42521745  1.0
  S2-  S33  1  0.15390760  0.89563670  0.62643751  1.0
  S2-  S33  1  0.16796696  0.90173422  0.82639352  1.0
  S2-  S33  1  0.36707897  0.02668613  0.02413629  1.0
  S2-  S33  1  0.36542408  0.02182167  0.22214949  1.0
  S2-  S33  1  0.35707981  0.02501398  0.42273585  1.0
  S2-  S33  1  0.35589836  0.14294540  0.01593840  1.0
  S2-  S33  1  0.36851705  0.14759078  0.22150349  1.0
  S2-  S33  1  0.36868008  0.14332952  0.41846216  1.0
  S2-  S33  1  0.36993969  0.14858456  0.62568847  1.0
  S2-  S33  1  0.36367370  0.27225596  0.01656880  1.0
  S2-  S33  1  0.36670344  0.26924342  0.22169964  1.0
  S2-  S33  1  0.37877203  0.27360929  0.42853126  1.0
  S2-  S33  1  0.35728891  0.26817291  0.61662736  1.0
  S2-  S33  1  0.35788003  0.27047295  0.80804353  1.0
  S2-  S33  1  0.36735567  0.39715226  0.02444273  1.0
  S2-  S33  1  0.37050815  0.39651030  0.22482638  1.0
  S2-  S33  1  0.37286572  0.39549396  0.42121599  1.0
  S2-  S33  1  0.38161591  0.39814701  0.61866709  1.0
  S2-  S33  1  0.55253560  0.58856244  0.58756770  1.0
  S2-  S33  1  0.36016727  0.52151284  0.01470005  1.0
  S2-  S33  1  0.35574818  0.51897074  0.21011908  1.0
  S2-  S33  1  0.36592191  0.52426285  0.41888367  1.0
  S2-  S33  1  0.37734323  0.52258152  0.62602769  1.0
  S2-  S33  1  0.36793981  0.52427098  0.81485299  1.0
  S2-  S33  1  0.37395909  0.64710333  0.02638155  1.0
  S2-  S33  1  0.36843581  0.65276213  0.42578863  1.0
  S2-  S33  1  0.36001631  0.65076115  0.61633162  1.0
  S2-  S33  1  0.35843630  0.65128504  0.82299821  1.0
  S2-  S33  1  0.36469284  0.77043866  0.02326340  1.0
  S2-  S33  1  0.36345418  0.77273970  0.21494932  1.0
  S2-  S33  1  0.36550704  0.77265366  0.42300954  1.0
  S2-  S33  1  0.36786914  0.77099438  0.62130344  1.0
  S2-  S33  1  0.37070437  0.76724220  0.81769928  1.0
  S2-  S33  1  0.36475209  0.89407445  0.02308083  1.0
  S2-  S33  1  0.37461855  0.90033719  0.23303279  1.0
  S2-  S33  1  0.36794951  0.89615866  0.42448693  1.0
  S2-  S33  1  0.36111660  0.89859571  0.62533745  1.0
  S2-  S33  1  0.37821112  0.90167174  0.82256470  1.0
  S2-  S33  1  0.57289698  0.02238479  0.02239571  1.0
  S2-  S33  1  0.56973850  0.02383961  0.22137390  1.0
  S2-  S33  1  0.55185135  0.02258505  0.42059704  1.0
  S2-  S33  1  0.56647356  0.02350232  0.82041235  1.0
  S2-  S33  1  0.56715753  0.15161872  0.03325367  1.0
  S2-  S33  1  0.57252336  0.14520835  0.22117683  1.0
  S2-  S33  1  0.56911867  0.14926947  0.42255791  1.0
  S2-  S33  1  0.57723008  0.15291439  0.61561399  1.0
  S2-  S33  1  0.56347088  0.15021096  0.82126241  1.0
  S2-  S33  1  0.57085886  0.27146315  0.02790860  1.0
  S2-  S33  1  0.57804675  0.27305622  0.23003413  1.0
  S2-  S33  1  0.56883144  0.27229813  0.42765041  1.0
  S2-  S33  1  0.55210546  0.27262951  0.62060669  1.0
  S2-  S33  1  0.56099993  0.26965086  0.81818543  1.0
  S2-  S33  1  0.55530438  0.40214810  0.02905626  1.0
  S2-  S33  1  0.56530186  0.39606799  0.21270388  1.0
  S2-  S33  1  0.56362702  0.40191813  0.42234571  1.0
  S2-  S33  1  0.56055834  0.39723381  0.61715876  1.0
  S2-  S33  1  0.54886271  0.39608277  0.81287493  1.0
  S2-  S33  1  0.57269122  0.52510940  0.01910695  1.0
  S2-  S33  1  0.56723570  0.52188517  0.21652788  1.0
  S2-  S33  1  0.57724825  0.53907948  0.63136929  1.0
  S2-  S33  1  0.56772239  0.52287521  0.62671748  1.0
  S2-  S33  1  0.55268354  0.51940846  0.81440526  1.0
  S2-  S33  1  0.56432028  0.64779816  0.02244990  1.0
  S2-  S33  1  0.55048034  0.65097924  0.22257617  1.0
  S2-  S33  1  0.56691457  0.63929149  0.42057429  1.0
  S2-  S33  1  0.55421302  0.64561223  0.62499884  1.0
  S2-  S33  1  0.56999186  0.64487532  0.82343187  1.0
  S2-  S33  1  0.56786929  0.77075365  0.02209274  1.0
  S2-  S33  1  0.56296877  0.77334394  0.22229153  1.0
  S2-  S33  1  0.57653960  0.77835775  0.42894973  1.0
  S2-  S33  1  0.57387190  0.77036379  0.61315639  1.0
  S2-  S33  1  0.56215376  0.89549595  0.02190147  1.0
  S2-  S33  1  0.56768874  0.90140719  0.21429338  1.0
  S2-  S33  1  0.56391046  0.89829787  0.41598705  1.0
  S2-  S33  1  0.57727487  0.89992709  0.62087376  1.0
  S2-  S33  1  0.58847895  0.89343674  0.81471456  1.0
  S2-  S33  1  0.76139959  0.02270270  0.01239553  1.0
  S2-  S33  1  0.77936062  0.03010561  0.21903936  1.0
  S2-  S33  1  0.77047392  0.02520619  0.42589591  1.0
  S2-  S33  1  0.78560318  0.02055140  0.63117518  1.0
  S2-  S33  1  0.76335043  0.14541820  0.02805899  1.0
  S2-  S33  1  0.76519995  0.15057536  0.21951162  1.0
  S2-  S33  1  0.74888025  0.14293634  0.41965838  1.0
  S2-  S33  1  0.75427430  0.14639699  0.61551726  1.0
  S2-  S33  1  0.75442085  0.14461384  0.81873653  1.0
  S2-  S33  1  0.73846369  0.27483482  0.01229906  1.0
  S2-  S33  1  0.74940667  0.26737295  0.41738249  1.0
  S2-  S33  1  0.77971459  0.27163977  0.62368851  1.0
  S2-  S33  1  0.77321502  0.39949931  0.01749461  1.0
  S2-  S33  1  0.78039013  0.39599301  0.22271829  1.0
  S2-  S33  1  0.76265703  0.39562934  0.42363246  1.0
  S2-  S33  1  0.76507549  0.38995260  0.61872640  1.0
  S2-  S33  1  0.68236092  0.23691609  0.85356067  1.0
  S2-  S33  1  0.75996665  0.52024958  0.01325441  1.0
  S2-  S33  1  0.76310750  0.52146504  0.22247740  1.0
  S2-  S33  1  0.76657769  0.52864013  0.41903496  1.0
  S2-  S33  1  0.76468218  0.51964415  0.61639374  1.0
  S2-  S33  1  0.76338401  0.52274680  0.82408281  1.0
  S2-  S33  1  0.75624093  0.64220069  0.42329214  1.0
  S2-  S33  1  0.75502660  0.64627827  0.61888284  1.0
  S2-  S33  1  0.76012933  0.64247756  0.82146660  1.0
  S2-  S33  1  0.74047781  0.77527741  0.02434706  1.0
  S2-  S33  1  0.77511806  0.77219225  0.22134727  1.0
  S2-  S33  1  0.75907650  0.77230607  0.42255620  1.0
  S2-  S33  1  0.75419964  0.77164419  0.61644313  1.0
  S2-  S33  1  0.77430867  0.76901317  0.82270791  1.0
  S2-  S33  1  0.76462495  0.89667688  0.02301725  1.0
  S2-  S33  1  0.76202907  0.89741891  0.22522987  1.0
  S2-  S33  1  0.75863133  0.89796583  0.42401524  1.0
  S2-  S33  1  0.77417645  0.90126031  0.62263205  1.0
  S2-  S33  1  0.77566100  0.90067829  0.81508186  1.0
  S2-  S33  1  0.96265908  0.02331834  0.02483082  1.0
  S2-  S33  1  0.97230751  0.02663684  0.22063692  1.0
  S2-  S33  1  0.95569276  0.02467375  0.41978934  1.0
  S2-  S33  1  0.96249305  0.02765360  0.62606584  1.0
  S2-  S33  1  0.97698361  0.02727810  0.82217553  1.0
  S2-  S33  1  0.98093400  0.14844697  0.01983360  1.0
  S2-  S33  1  0.96604766  0.14769061  0.22582751  1.0
  S2-  S33  1  0.94663933  0.14138004  0.41158721  1.0
  S2-  S33  1  0.96708267  0.14941203  0.61933480  1.0
  S2-  S33  1  0.97468066  0.15231026  0.81571497  1.0
  S2-  S33  1  0.97170151  0.27997246  0.02132937  1.0
  S2-  S33  1  0.95901065  0.27378141  0.21776849  1.0
  S2-  S33  1  0.98395937  0.28015384  0.42653765  1.0
  S2-  S33  1  0.99143133  0.27060501  0.62167167  1.0
  S2-  S33  1  0.95456606  0.27061419  0.81712087  1.0
  S2-  S33  1  0.96579257  0.39301845  0.01584217  1.0
  S2-  S33  1  0.86617223  0.59627471  0.00306932  1.0
  S2-  S33  1  0.06972693  0.40613220  0.39339843  1.0
  S2-  S33  1  0.97869098  0.39406573  0.62448408  1.0
  S2-  S33  1  0.96139120  0.39508807  0.82372137  1.0
  S2-  S33  1  0.95018588  0.51846523  0.01746601  1.0
  S2-  S33  1  0.96995210  0.52475467  0.22538736  1.0
  S2-  S33  1  0.96517048  0.52242281  0.41964303  1.0
  S2-  S33  1  0.97662425  0.51887947  0.62009419  1.0
  S2-  S33  1  0.97666180  0.52570195  0.82005508  1.0
  S2-  S33  1  0.95199983  0.64303354  0.01509758  1.0
  S2-  S33  1  0.96660448  0.64554226  0.22290448  1.0
  S2-  S33  1  0.96677823  0.64906983  0.42200045  1.0
  S2-  S33  1  0.94515686  0.64333226  0.62155953  1.0
  S2-  S33  1  0.95884187  0.64986047  0.82137182  1.0
  S2-  S33  1  0.95804917  0.77452686  0.01826211  1.0
  S2-  S33  1  0.96639654  0.77139775  0.20717731  1.0
  S2-  S33  1  0.97167721  0.77251964  0.41576107  1.0
  S2-  S33  1  0.96923358  0.76923917  0.61524019  1.0
  S2-  S33  1  0.96576302  0.76981187  0.81853645  1.0
  S2-  S33  1  0.94898338  0.89207334  0.01659064  1.0
  S2-  S33  1  0.96776159  0.89714476  0.21911822  1.0
  S2-  S33  1  0.95516000  0.89355618  0.41202879  1.0
  S2-  S33  1  0.96268981  0.90041272  0.62257264  1.0
  S2-  S34  1  0.12692052  0.99950389  0.15959227  1.0
  S2-  S34  1  0.13552219  0.00877080  0.36404699  1.0
  S2-  S34  1  0.12092183  0.00109964  0.55907372  1.0
  S2-  S34  1  0.12877663  0.00725953  0.76691057  1.0
  S2-  S34  1  0.11723876  0.12852663  0.37111925  1.0
  S2-  S34  1  0.11203291  0.12798993  0.56224169  1.0
  S2-  S34  1  0.12386077  0.12754883  0.75759801  1.0
  S2-  S34  1  0.11609616  0.12804769  0.96402933  1.0
  S2-  S34  1  0.11537681  0.25446875  0.16487844  1.0
  S2-  S34  1  0.12571586  0.25222529  0.36307122  1.0
  S2-  S34  1  0.04222779  0.35300119  0.32197851  1.0
  S2-  S34  1  0.13306731  0.25906649  0.76947050  1.0
  S2-  S34  1  0.13946331  0.25093149  0.95599477  1.0
  S2-  S34  1  0.13289302  0.37965570  0.15250664  1.0
  S2-  S34  1  0.13696220  0.38527567  0.37400295  1.0
  S2-  S34  1  0.12246362  0.38091780  0.55706601  1.0
  S2-  S34  1  0.12372520  0.37592407  0.75349296  1.0
  S2-  S34  1  0.13693042  0.37953331  0.96437006  1.0
  S2-  S34  1  0.13415731  0.50424227  0.15689814  1.0
  S2-  S34  1  0.12865211  0.50288849  0.35962611  1.0
  S2-  S34  1  0.11313871  0.49868698  0.55405908  1.0
  S2-  S34  1  0.13245409  0.50337266  0.76964157  1.0
  S2-  S34  1  0.12718363  0.50423465  0.96108770  1.0
  S2-  S34  1  0.11656719  0.62852901  0.15439814  1.0
  S2-  S34  1  0.12107754  0.62285952  0.35692790  1.0
  S2-  S34  1  0.12939184  0.62931685  0.55450936  1.0
  S2-  S34  1  0.13407371  0.63074818  0.75798605  1.0
  S2-  S34  1  0.13764434  0.62921437  0.96191129  1.0
  S2-  S34  1  0.13793444  0.75888688  0.16380101  1.0
  S2-  S34  1  0.12877233  0.76038436  0.36331770  1.0
  S2-  S34  1  0.13034885  0.75303370  0.55318752  1.0
  S2-  S34  1  0.12761843  0.75722276  0.75865597  1.0
  S2-  S34  1  0.14275171  0.75608939  0.95892426  1.0
  S2-  S34  1  0.11138993  0.87458058  0.15503768  1.0
  S2-  S34  1  0.87100684  0.67345792  0.28458693  1.0
  S2-  S34  1  0.12305984  0.88355225  0.56135789  1.0
  S2-  S34  1  0.13287823  0.88011387  0.95519589  1.0
  S2-  S34  1  0.33714330  0.00559903  0.16589151  1.0
  S2-  S34  1  0.32135504  0.00453480  0.35966701  1.0
  S2-  S34  1  0.32574408  0.00106434  0.55842510  1.0
  S2-  S34  1  0.33098663  0.99731804  0.75639879  1.0
  S2-  S34  1  0.33021971  0.00005129  0.96124819  1.0
  S2-  S34  1  0.33143261  0.12809954  0.16237780  1.0
  S2-  S34  1  0.34138294  0.12640630  0.35470863  1.0
  S2-  S34  1  0.31990671  0.12535575  0.56014127  1.0
  S2-  S34  1  0.32459444  0.13059847  0.76274454  1.0
  S2-  S34  1  0.31753010  0.25059024  0.15156343  1.0
  S2-  S34  1  0.33934657  0.25530934  0.36097071  1.0
  S2-  S34  1  0.32984427  0.24999746  0.55514206  1.0
  S2-  S34  1  0.31837019  0.25450106  0.75726541  1.0
  S2-  S34  1  0.31301429  0.25389683  0.96193867  1.0
  S2-  S34  1  0.32941833  0.38231594  0.36654134  1.0
  S2-  S34  1  0.45530420  0.22962486  0.52737571  1.0
  S2-  S34  1  0.31375087  0.37747020  0.75620071  1.0
  S2-  S34  1  0.31658384  0.37672444  0.95166038  1.0
  S2-  S34  1  0.33275480  0.50014569  0.16353847  1.0
  S2-  S34  1  0.45723376  0.63534199  0.58787937  1.0
  S2-  S34  1  0.33084616  0.50217553  0.75665529  1.0
  S2-  S34  1  0.14380709  0.72465350  0.13268322  1.0
  S2-  S34  1  0.33491341  0.63078174  0.16220948  1.0
  S2-  S34  1  0.34350144  0.62617713  0.36501321  1.0
  S2-  S34  1  0.32101552  0.63607893  0.56746311  1.0
  S2-  S34  1  0.31949241  0.63031345  0.76567707  1.0
  S2-  S34  1  0.31688454  0.75209781  0.15410328  1.0
  S2-  S34  1  0.33257264  0.75419301  0.56175448  1.0
  S2-  S34  1  0.31855486  0.75292423  0.75600538  1.0
  S2-  S34  1  0.32879208  0.75016540  0.95546149  1.0
  S2-  S34  1  0.33399455  0.87716443  0.56913376  1.0
  S2-  S34  1  0.32355013  0.87268567  0.75118659  1.0
  S2-  S34  1  0.52365311  0.00602106  0.16449610  1.0
  S2-  S34  1  0.52623880  0.00761799  0.36407776  1.0
  S2-  S34  1  0.52769515  0.00742471  0.55877288  1.0
  S2-  S34  1  0.53480994  0.00574217  0.76553173  1.0
  S2-  S34  1  0.52838693  0.00643932  0.97092152  1.0
  S2-  S34  1  0.52589237  0.12881915  0.16504215  1.0
  S2-  S34  1  0.52367078  0.12764346  0.35435245  1.0
  S2-  S34  1  0.50761709  0.12639600  0.56410101  1.0
  S2-  S34  1  0.51849448  0.13018549  0.76750229  1.0
  S2-  S34  1  0.52607052  0.12572137  0.95857256  1.0
  S2-  S34  1  0.53221571  0.25485447  0.16243594  1.0
  S2-  S34  1  0.53663776  0.25685887  0.36107614  1.0
  S2-  S34  1  0.54226460  0.25467393  0.55240948  1.0
  S2-  S34  1  0.52481836  0.25303304  0.76527666  1.0
  S2-  S34  1  0.52189818  0.25408545  0.95361395  1.0
  S2-  S34  1  0.52142911  0.38119810  0.15550853  1.0
  S2-  S34  1  0.54040771  0.38231663  0.36987567  1.0
  S2-  S34  1  0.54505160  0.38112702  0.56597443  1.0
  S2-  S34  1  0.53363210  0.37883148  0.75978508  1.0
  S2-  S34  1  0.53630704  0.38006350  0.96661780  1.0
  S2-  S34  1  0.40410866  0.54319579  0.35017401  1.0
  S2-  S34  1  0.53480184  0.51286672  0.37517382  1.0
  S2-  S34  1  0.52686719  0.50317218  0.56257560  1.0
  S2-  S34  1  0.52156138  0.50214359  0.75956720  1.0
  S2-  S34  1  0.52409880  0.50419830  0.96239076  1.0
  S2-  S34  1  0.48950766  0.62231667  0.14937063  1.0
  S2-  S34  1  0.34954332  0.64410571  0.18139357  1.0
  S2-  S34  1  0.69484621  0.42169967  0.74789787  1.0
  S2-  S34  1  0.50781322  0.62479782  0.75424605  1.0
  S2-  S34  1  0.51866504  0.63212510  0.96066817  1.0
  S2-  S34  1  0.53355542  0.75808823  0.17270583  1.0
  S2-  S34  1  0.52028307  0.74914885  0.35215767  1.0
  S2-  S34  1  0.59314197  0.79643477  0.78658309  1.0
  S2-  S34  1  0.53094589  0.75008922  0.75106279  1.0
  S2-  S34  1  0.50271439  0.74888343  0.96112501  1.0
  S2-  S34  1  0.52510609  0.87848877  0.16129921  1.0
  S2-  S34  1  0.51566306  0.87703471  0.55682168  1.0
  S2-  S34  1  0.51643681  0.87701459  0.75813988  1.0
  S2-  S34  1  0.52610588  0.88001170  0.95895869  1.0
  S2-  S34  1  0.73942703  0.00023104  0.15798189  1.0
  S2-  S34  1  0.58984284  0.22269358  0.60578172  1.0
  S2-  S34  1  0.72869198  0.00620643  0.75453869  1.0
  S2-  S34  1  0.72173345  0.99874986  0.95390948  1.0
  S2-  S34  1  0.58569713  0.33832143  0.03151144  1.0
  S2-  S34  1  0.73837456  0.12751088  0.36406744  1.0
  S2-  S34  1  0.74010501  0.12639307  0.76404122  1.0
  S2-  S34  1  0.72705212  0.12406742  0.96423460  1.0
  S2-  S34  1  0.72658153  0.25186132  0.15213538  1.0
  S2-  S34  1  0.71418606  0.25324510  0.35271367  1.0
  S2-  S34  1  0.73236313  0.25236293  0.55331285  1.0
  S2-  S34  1  0.71121934  0.24952166  0.74868061  1.0
  S2-  S34  1  0.70544992  0.25392352  0.95385701  1.0
  S2-  S34  1  0.74903125  0.38183598  0.17247923  1.0
  S2-  S34  1  0.73254982  0.37669240  0.36193979  1.0
  S2-  S34  1  0.72527076  0.37970985  0.56523739  1.0
  S2-  S34  1  0.73321541  0.37862621  0.76171950  1.0
  S2-  S34  1  0.73285862  0.38220536  0.96076303  1.0
  S2-  S34  1  0.72307369  0.50194404  0.16009159  1.0
  S2-  S34  1  0.73451205  0.50457623  0.36173819  1.0
  S2-  S34  1  0.73546070  0.50100891  0.55331047  1.0
  S2-  S34  1  0.68707535  0.47054814  0.70935661  1.0
  S2-  S34  1  0.71431937  0.62936644  0.36782238  1.0
  S2-  S34  1  0.71346399  0.62808666  0.55924656  1.0
  S2-  S34  1  0.72331508  0.62913515  0.75840222  1.0
  S2-  S34  1  0.72797060  0.62776775  0.95785017  1.0
  S2-  S34  1  0.72795852  0.75516848  0.15417127  1.0
  S2-  S34  1  0.73189523  0.75123220  0.36303799  1.0
  S2-  S34  1  0.94861389  0.95182880  0.32059324  1.0
  S2-  S34  1  0.71659863  0.75216806  0.76445920  1.0
  S2-  S34  1  0.72632429  0.75210526  0.96529055  1.0
  S2-  S34  1  0.73314760  0.87585887  0.15910647  1.0
  S2-  S34  1  0.71236489  0.88144260  0.36039001  1.0
  S2-  S34  1  0.72790858  0.87229804  0.55643986  1.0
  S2-  S34  1  0.72231807  0.87169101  0.95994651  1.0
  S2-  S34  1  0.91855101  0.99787654  0.15453990  1.0
  S2-  S34  1  0.92894714  0.00062118  0.35926385  1.0
  S2-  S34  1  0.91671321  0.99709586  0.55934507  1.0
  S2-  S34  1  0.93885715  0.00734523  0.76387742  1.0
  S2-  S34  1  0.92704679  0.99833532  0.95930462  1.0
  S2-  S34  1  0.92382122  0.12834804  0.15490961  1.0
  S2-  S34  1  0.93329507  0.12321486  0.36011291  1.0
  S2-  S34  1  0.92000242  0.13420355  0.56495209  1.0
  S2-  S34  1  0.92375177  0.25024676  0.16291999  1.0
  S2-  S34  1  0.89586862  0.25485185  0.36013742  1.0
  S2-  S34  1  0.93434057  0.25633138  0.56015747  1.0
  S2-  S34  1  0.93062663  0.25141403  0.75612064  1.0
  S2-  S34  1  0.91615281  0.25277725  0.96430965  1.0
  S2-  S34  1  0.94381893  0.37811407  0.15979324  1.0
  S2-  S34  1  0.94183631  0.38001249  0.36319595  1.0
  S2-  S34  1  0.92065409  0.38326805  0.76263721  1.0
  S2-  S34  1  0.92891656  0.38036551  0.96185264  1.0
  S2-  S34  1  0.94508221  0.50689867  0.16167566  1.0
  S2-  S34  1  0.92627808  0.50168984  0.36863155  1.0
  S2-  S34  1  0.91965226  0.50321083  0.76137976  1.0
  S2-  S34  1  0.93437140  0.50579893  0.96637291  1.0
  S2-  S34  1  0.93279491  0.62718699  0.35808368  1.0
  S2-  S34  1  0.92589753  0.62679981  0.55658171  1.0
  S2-  S34  1  0.92955776  0.63545446  0.77156890  1.0
  S2-  S34  1  0.91842233  0.62185971  0.95367935  1.0
  S2-  S34  1  0.93114088  0.74849349  0.16157088  1.0
  S2-  S34  1  0.93266737  0.75365550  0.56118112  1.0
  S2-  S34  1  0.92037630  0.75587147  0.76248126  1.0
  S2-  S34  1  0.77084795  0.85441980  0.88139048  1.0
  S2-  S34  1  0.93030755  0.87793945  0.15984898  1.0
  S2-  S34  1  0.90825796  0.87502743  0.35112814  1.0
  S2-  S34  1  0.83626723  0.00436684  0.76186349  1.0
  S2-  S35  1  0.17292779  0.10885470  0.01860982  1.0
  S2-  S35  1  0.15209532  0.10109798  0.21535630  1.0
  S2-  S35  1  0.16290716  0.10695743  0.41399281  1.0
  S2-  S35  1  0.18615251  0.10538294  0.62002766  1.0
  S2-  S35  1  0.15293696  0.10836913  0.81929954  1.0
  S2-  S35  1  0.15247240  0.22445252  0.00921651  1.0
  S2-  S35  1  0.15936680  0.23346379  0.20942893  1.0
  S2-  S35  1  0.18304671  0.23105759  0.41693976  1.0
  S2-  S35  1  0.14528351  0.22687838  0.60073132  1.0
  S2-  S35  1  0.23231128  0.05686735  0.88246165  1.0
  S2-  S35  1  0.05015615  0.25790283  0.89693908  1.0
  S2-  S35  1  0.16877265  0.35896159  0.21161904  1.0
  S2-  S35  1  0.18218537  0.35923915  0.40906080  1.0
  S2-  S35  1  0.16706410  0.35577282  0.61044754  1.0
  S2-  S35  1  0.15693367  0.35353869  0.81377673  1.0
  S2-  S35  1  0.15139791  0.47888370  0.01213055  1.0
  S2-  S35  1  0.17900612  0.47908993  0.20588804  1.0
  S2-  S35  1  0.17087903  0.48134657  0.41431879  1.0
  S2-  S35  1  0.16109309  0.48264632  0.61316592  1.0
  S2-  S35  1  0.15587332  0.48300598  0.81338575  1.0
  S2-  S35  1  0.09559137  0.58367094  0.93015976  1.0
  S2-  S35  1  0.16498156  0.60725248  0.21151603  1.0
  S2-  S35  1  0.14126268  0.59911465  0.40399190  1.0
  S2-  S35  1  0.16326920  0.60781291  0.61713513  1.0
  S2-  S35  1  0.15042650  0.60055103  0.80439210  1.0
  S2-  S35  1  0.18578933  0.73607266  0.01793713  1.0
  S2-  S35  1  0.15431763  0.73041282  0.21771611  1.0
  S2-  S35  1  0.15981697  0.72946960  0.41605457  1.0
  S2-  S35  1  0.13635969  0.72743444  0.80230542  1.0
  S2-  S35  1  0.16985869  0.85365164  0.00272897  1.0
  S2-  S35  1  0.15053883  0.85417462  0.20825296  1.0
  S2-  S35  1  0.16319236  0.85886627  0.41079038  1.0
  S2-  S35  1  0.15323919  0.85586279  0.61083890  1.0
  S2-  S35  1  0.14761509  0.85015665  0.80399405  1.0
  S2-  S35  1  0.10184244  0.92037293  0.87662111  1.0
  S2-  S35  1  0.16227634  0.97898885  0.41678177  1.0
  S2-  S35  1  0.14503178  0.97524749  0.80769034  1.0
  S2-  S35  1  0.35091219  0.10552567  0.00418715  1.0
  S2-  S35  1  0.36045784  0.10729151  0.21419538  1.0
  S2-  S35  1  0.34334487  0.10129445  0.40825160  1.0
  S2-  S35  1  0.35338962  0.10389479  0.60820795  1.0
  S2-  S35  1  0.35836862  0.10693003  0.81309635  1.0
  S2-  S35  1  0.36791483  0.22986837  0.01560763  1.0
  S2-  S35  1  0.36747839  0.23355760  0.20737039  1.0
  S2-  S35  1  0.36376907  0.23689123  0.40729073  1.0
  S2-  S35  1  0.38220312  0.23640872  0.61912636  1.0
  S2-  S35  1  0.34480188  0.23000418  0.81206567  1.0
  S2-  S35  1  0.34778596  0.35791582  0.01056066  1.0
  S2-  S35  1  0.34975224  0.35206053  0.41437767  1.0
  S2-  S35  1  0.36613931  0.35517258  0.61100062  1.0
  S2-  S35  1  0.35061548  0.34981519  0.81259350  1.0
  S2-  S35  1  0.36405466  0.48382292  0.01019507  1.0
  S2-  S35  1  0.36081892  0.48175383  0.21586622  1.0
  S2-  S35  1  0.37636580  0.47951607  0.41024944  1.0
  S2-  S35  1  0.35235165  0.47875333  0.62261679  1.0
  S2-  S35  1  0.35048638  0.61447135  0.01652205  1.0
  S2-  S35  1  0.35547836  0.60297882  0.20837343  1.0
  S2-  S35  1  0.35757438  0.61021211  0.41525695  1.0
  S2-  S35  1  0.37466619  0.60476343  0.61228474  1.0
  S2-  S35  1  0.35677227  0.60449144  0.80456567  1.0
  S2-  S35  1  0.36713966  0.73182266  0.01151692  1.0
  S2-  S35  1  0.60509111  0.88874186  0.16186406  1.0
  S2-  S35  1  0.37060649  0.73396728  0.42039959  1.0
  S2-  S35  1  0.34484825  0.72757120  0.60169961  1.0
  S2-  S35  1  0.35139931  0.72961735  0.81095225  1.0
  S2-  S35  1  0.37571858  0.85292911  0.01640977  1.0
  S2-  S35  1  0.37023533  0.85422582  0.20951923  1.0
  S2-  S35  1  0.35435636  0.85024598  0.60954837  1.0
  S2-  S35  1  0.34934494  0.85828588  0.80836478  1.0
  S2-  S35  1  0.35077356  0.97751892  0.01036766  1.0
  S2-  S35  1  0.36282088  0.97922616  0.21851352  1.0
  S2-  S35  1  0.35920426  0.98066498  0.41055875  1.0
  S2-  S35  1  0.34903178  0.97746938  0.60581483  1.0
  S2-  S35  1  0.35947334  0.97467302  0.80033940  1.0
  S2-  S35  1  0.54726994  0.09985966  0.19942438  1.0
  S2-  S35  1  0.56561569  0.10428124  0.60634407  1.0
  S2-  S35  1  0.56065877  0.23108551  0.01615957  1.0
  S2-  S35  1  0.53827924  0.22768921  0.20363159  1.0
  S2-  S35  1  0.57179551  0.24014152  0.41903401  1.0
  S2-  S35  1  0.55248271  0.22675376  0.60129878  1.0
  S2-  S35  1  0.56544174  0.22811858  0.80809574  1.0
  S2-  S35  1  0.57010300  0.35011879  0.01014932  1.0
  S2-  S35  1  0.55498027  0.36104669  0.20792864  1.0
  S2-  S35  1  0.55995580  0.34981369  0.41491528  1.0
  S2-  S35  1  0.56634870  0.35389665  0.61210913  1.0
  S2-  S35  1  0.56892766  0.35620891  0.80981166  1.0
  S2-  S35  1  0.55826943  0.48106931  0.01063141  1.0
  S2-  S35  1  0.56006438  0.47738002  0.40573415  1.0
  S2-  S35  1  0.55647874  0.48224653  0.60348910  1.0
  S2-  S35  1  0.56286741  0.48325679  0.81216772  1.0
  S2-  S35  1  0.55871536  0.60472398  0.01006599  1.0
  S2-  S35  1  0.55398945  0.60516789  0.20735214  1.0
  S2-  S35  1  0.55612955  0.60467479  0.40385957  1.0
  S2-  S35  1  0.54413718  0.60596888  0.61155834  1.0
  S2-  S35  1  0.57781711  0.73428988  0.01842510  1.0
  S2-  S35  1  0.56156215  0.73109935  0.20701962  1.0
  S2-  S35  1  0.55050011  0.73133179  0.40564807  1.0
  S2-  S35  1  0.55023811  0.72256482  0.60758384  1.0
  S2-  S35  1  0.54414839  0.72605424  0.80976707  1.0
  S2-  S35  1  0.56824734  0.85543503  0.00780755  1.0
  S2-  S35  1  0.56367829  0.85320263  0.20886425  1.0
  S2-  S35  1  0.57351818  0.85693431  0.41230545  1.0
  S2-  S35  1  0.55629049  0.85585343  0.61129418  1.0
  S2-  S35  1  0.55143709  0.85965085  0.80912921  1.0
  S2-  S35  1  0.55939506  0.98336387  0.01092270  1.0
  S2-  S35  1  0.56754550  0.98055714  0.21165114  1.0
  S2-  S35  1  0.56975364  0.98479438  0.41865190  1.0
  S2-  S35  1  0.57248218  0.98394764  0.60961402  1.0
  S2-  S35  1  0.56812176  0.97516481  0.80567567  1.0
  S2-  S35  1  0.75390625  0.10190711  0.00919659  1.0
  S2-  S35  1  0.76406875  0.10338650  0.21193749  1.0
  S2-  S35  1  0.76123466  0.09939840  0.60833378  1.0
  S2-  S35  1  0.75977734  0.10271930  0.80327536  1.0
  S2-  S35  1  0.75146531  0.23010047  0.00556801  1.0
  S2-  S35  1  0.76577067  0.23210021  0.21349663  1.0
  S2-  S35  1  0.77345934  0.23281543  0.41428094  1.0
  S2-  S35  1  0.75029085  0.23448530  0.61708472  1.0
  S2-  S35  1  0.75310806  0.22807116  0.81191049  1.0
  S2-  S35  1  0.74199049  0.35700962  0.01603857  1.0
  S2-  S35  1  0.75585735  0.35650036  0.21077340  1.0
  S2-  S35  1  0.76964002  0.35605658  0.41003721  1.0
  S2-  S35  1  0.74404818  0.35601785  0.60838207  1.0
  S2-  S35  1  0.73548670  0.35242765  0.80318379  1.0
  S2-  S35  1  0.75286002  0.48061848  0.00900999  1.0
  S2-  S35  1  0.76530356  0.48807943  0.21243735  1.0
  S2-  S35  1  0.75510666  0.48582076  0.41920944  1.0
  S2-  S35  1  0.75188497  0.48466772  0.60261464  1.0
  S2-  S35  1  0.79307255  0.48652467  0.81947874  1.0
  S2-  S35  1  0.76884700  0.60715754  0.00897621  1.0
  S2-  S35  1  0.77504495  0.61013319  0.21078771  1.0
  S2-  S35  1  0.75475315  0.60168886  0.40763859  1.0
  S2-  S35  1  0.75974372  0.61020710  0.62073787  1.0
  S2-  S35  1  0.75068904  0.60821880  0.81469140  1.0
  S2-  S35  1  0.74447457  0.73385756  0.00312346  1.0
  S2-  S35  1  0.75100667  0.72777214  0.20051597  1.0
  S2-  S35  1  0.76698444  0.72763780  0.40784218  1.0
  S2-  S35  1  0.76114711  0.73313352  0.60709674  1.0
  S2-  S35  1  0.76304912  0.72995723  0.80560632  1.0
  S2-  S35  1  0.77554342  0.86248874  0.01638168  1.0
  S2-  S35  1  0.75054573  0.85331123  0.21197772  1.0
  S2-  S35  1  0.75573825  0.85224605  0.40022750  1.0
  S2-  S35  1  0.75877407  0.85158401  0.60636817  1.0
  S2-  S35  1  0.77256448  0.85300000  0.81551900  1.0
  S2-  S35  1  0.75180416  0.98280006  0.01257254  1.0
  S2-  S35  1  0.76188201  0.97872555  0.21267078  1.0
  S2-  S35  1  0.76622455  0.98969177  0.41336486  1.0
  S2-  S35  1  0.76893066  0.97777338  0.60887548  1.0
  S2-  S35  1  0.75099799  0.97909477  0.80784170  1.0
  S2-  S35  1  0.97470296  0.10719970  0.01862931  1.0
  S2-  S35  1  0.96303826  0.10989374  0.21381692  1.0
  S2-  S35  1  0.95431723  0.10915432  0.61841543  1.0
  S2-  S35  1  0.96785399  0.10842016  0.81864351  1.0
  S2-  S35  1  0.95398084  0.22836915  0.01029776  1.0
  S2-  S35  1  0.97705895  0.23169274  0.21579476  1.0
  S2-  S35  1  0.96056651  0.23167116  0.40841593  1.0
  S2-  S35  1  0.96710176  0.23357312  0.60546109  1.0
  S2-  S35  1  0.93848361  0.22499083  0.81217449  1.0
  S2-  S35  1  0.95077637  0.35685755  0.01833575  1.0
  S2-  S35  1  0.96382036  0.35738771  0.40763964  1.0
  S2-  S35  1  0.95913536  0.35246530  0.59972646  1.0
  S2-  S35  1  0.96042482  0.35675674  0.80843898  1.0
  S2-  S35  1  0.95079641  0.48001446  0.00556356  1.0
  S2-  S35  1  0.86786524  0.52293256  0.28504148  1.0
  S2-  S35  1  0.95557732  0.48093820  0.41081559  1.0
  S2-  S35  1  0.95156326  0.47580439  0.61517641  1.0
  S2-  S35  1  0.98529616  0.48396959  0.82411752  1.0
  S2-  S35  1  0.96737656  0.60521491  0.01384576  1.0
  S2-  S35  1  0.96459962  0.60049047  0.41052294  1.0
  S2-  S35  1  0.96251652  0.61052873  0.61474934  1.0
  S2-  S35  1  0.93647210  0.60711941  0.79920190  1.0
  S2-  S35  1  0.96922478  0.72820627  0.00489361  1.0
  S2-  S35  1  0.94843834  0.72779606  0.20693465  1.0
  S2-  S35  1  0.94915114  0.72836406  0.39957444  1.0
  S2-  S35  1  0.96081809  0.73534983  0.61058275  1.0
  S2-  S35  1  0.96122483  0.72661350  0.81131320  1.0
  S2-  S35  1  0.97468040  0.86035839  0.01524742  1.0
  S2-  S35  1  0.96162118  0.85153449  0.20676096  1.0
  S2-  S35  1  0.95194571  0.85678165  0.40748139  1.0
  S2-  S35  1  0.97363874  0.98880216  0.01893818  1.0
  S2-  S35  1  0.96930132  0.97684745  0.20920268  1.0
  S2-  S35  1  0.96127042  0.98092266  0.41936495  1.0
  S2-  S35  1  0.95249157  0.98176427  0.59853893  1.0
  S2-  S35  1  0.96471328  0.98236039  0.81147307  1.0
  S2-  S36  1  0.02061748  0.02110747  0.13015240  1.0
  S2-  S36  1  0.00592158  0.02016800  0.32768533  1.0
  S2-  S36  1  0.00134503  0.02242564  0.53255828  1.0
  S2-  S36  1  0.01594070  0.01895698  0.72994910  1.0
  S2-  S36  1  0.01366222  0.02437312  0.93104554  1.0
  S2-  S36  1  0.01629422  0.15111957  0.13407941  1.0
  S2-  S36  1  0.00572033  0.14766394  0.33104102  1.0
  S2-  S36  1  0.99150509  0.14859750  0.73791680  1.0
  S2-  S36  1  0.02144975  0.15135044  0.94159114  1.0
  S2-  S36  1  0.01627524  0.27963220  0.14104219  1.0
  S2-  S36  1  0.01960815  0.26970849  0.72783132  1.0
  S2-  S36  1  0.01048588  0.27594900  0.94519334  1.0
  S2-  S36  1  0.02159719  0.39825012  0.14165329  1.0
  S2-  S36  1  0.02769011  0.39321291  0.34306589  1.0
  S2-  S36  1  0.01800500  0.40148344  0.53315692  1.0
  S2-  S36  1  0.02428009  0.39327282  0.74030579  1.0
  S2-  S36  1  0.01995920  0.39282165  0.94032481  1.0
  S2-  S36  1  0.01224969  0.52667564  0.13832901  1.0
  S2-  S36  1  0.00285197  0.51964408  0.35167917  1.0
  S2-  S36  1  0.04078525  0.52226131  0.54080658  1.0
  S2-  S36  1  0.02641159  0.51873532  0.73872891  1.0
  S2-  S36  1  0.02939936  0.52412842  0.94497282  1.0
  S2-  S36  1  0.02338800  0.65155296  0.13997960  1.0
  S2-  S36  1  0.00605383  0.65101051  0.54278136  1.0
  S2-  S36  1  0.01275963  0.64358134  0.73793627  1.0
  S2-  S36  1  0.02250933  0.64891699  0.93839266  1.0
  S2-  S36  1  0.02937448  0.77388739  0.13602072  1.0
  S2-  S36  1  0.00088710  0.77144325  0.33814479  1.0
  S2-  S36  1  0.01989143  0.77689803  0.73080527  1.0
  S2-  S36  1  0.00303821  0.76847089  0.73442705  1.0
  S2-  S36  1  0.04327722  0.90526746  0.14792286  1.0
  S2-  S36  1  0.99656684  0.89549570  0.31850310  1.0
  S2-  S36  1  0.02512834  0.90324742  0.54373256  1.0
  S2-  S36  1  0.00514055  0.90247726  0.74291697  1.0
  S2-  S36  1  0.03726652  0.90156539  0.93796406  1.0
  S2-  S36  1  0.20357153  0.02676699  0.14037240  1.0
  S2-  S36  1  0.19872132  0.02022309  0.32775902  1.0
  S2-  S36  1  0.23679976  0.98030358  0.29733870  1.0
  S2-  S36  1  0.21074765  0.01927736  0.73850009  1.0
  S2-  S36  1  0.21479423  0.02673910  0.93137134  1.0
  S2-  S36  1  0.21845684  0.15451550  0.14022146  1.0
  S2-  S36  1  0.21158563  0.14590007  0.33068660  1.0
  S2-  S36  1  0.22574775  0.15087887  0.53999778  1.0
  S2-  S36  1  0.21970939  0.14991020  0.73100329  1.0
  S2-  S36  1  0.22355154  0.14936586  0.93909778  1.0
  S2-  S36  1  0.21048377  0.27042081  0.12828837  1.0
  S2-  S36  1  0.23292238  0.27276680  0.33613205  1.0
  S2-  S36  1  0.21025881  0.26982907  0.53160162  1.0
  S2-  S36  1  0.23231726  0.27484545  0.74298728  1.0
  S2-  S36  1  0.23483457  0.28012244  0.94201166  1.0
  S2-  S36  1  0.21552081  0.39937409  0.13998807  1.0
  S2-  S36  1  0.21531164  0.39503299  0.33569436  1.0
  S2-  S36  1  0.22493979  0.39908127  0.52915441  1.0
  S2-  S36  1  0.20480083  0.40028594  0.73436428  1.0
  S2-  S36  1  0.24478358  0.52732215  0.13567383  1.0
  S2-  S36  1  0.23364227  0.52816816  0.53869983  1.0
  S2-  S36  1  0.32855585  0.65941762  0.71869474  1.0
  S2-  S36  1  0.22610571  0.51450198  0.93020607  1.0
  S2-  S36  1  0.21470561  0.64846099  0.13051708  1.0
  S2-  S36  1  0.22623537  0.64196116  0.52596985  1.0
  S2-  S36  1  0.21500852  0.64375138  0.73514885  1.0
  S2-  S36  1  0.21355912  0.65058144  0.93287783  1.0
  S2-  S36  1  0.20519913  0.73214687  0.33804683  1.0
  S2-  S36  1  0.22510921  0.77342456  0.34127836  1.0
  S2-  S36  1  0.03077540  0.68032626  0.67870230  1.0
  S2-  S36  1  0.23108864  0.77676591  0.94049065  1.0
  S2-  S36  1  0.22738826  0.90100495  0.14666403  1.0
  S2-  S36  1  0.23591317  0.90130693  0.33821572  1.0
  S2-  S36  1  0.20707584  0.89977235  0.53875341  1.0
  S2-  S36  1  0.21032404  0.89359714  0.74139451  1.0
  S2-  S36  1  0.21891850  0.89400806  0.93413444  1.0
  S2-  S36  1  0.40928133  0.02639447  0.54691402  1.0
  S2-  S36  1  0.41628739  0.02264676  0.73486929  1.0
  S2-  S36  1  0.41378028  0.02041794  0.94136608  1.0
  S2-  S36  1  0.42057195  0.14815508  0.13584089  1.0
  S2-  S36  1  0.40932618  0.15061117  0.34402161  1.0
  S2-  S36  1  0.40207169  0.15026202  0.53988639  1.0
  S2-  S36  1  0.43498392  0.15187962  0.75282332  1.0
  S2-  S36  1  0.42550730  0.15118569  0.93898633  1.0
  S2-  S36  1  0.41262532  0.27525819  0.14171411  1.0
  S2-  S36  1  0.41667769  0.26753400  0.32691318  1.0
  S2-  S36  1  0.53019562  0.30296182  0.67888327  1.0
  S2-  S36  1  0.42288800  0.27257524  0.93568602  1.0
  S2-  S36  1  0.41896952  0.39987734  0.13982517  1.0
  S2-  S36  1  0.41041607  0.39789999  0.33060491  1.0
  S2-  S36  1  0.42211233  0.39643015  0.53966892  1.0
  S2-  S36  1  0.41958838  0.40167919  0.74479778  1.0
  S2-  S36  1  0.42171827  0.39675073  0.93193210  1.0
  S2-  S36  1  0.42781417  0.52273251  0.33776545  1.0
  S2-  S36  1  0.41025830  0.51843882  0.53855899  1.0
  S2-  S36  1  0.41179649  0.51687523  0.73224556  1.0
  S2-  S36  1  0.40675540  0.52487371  0.93829789  1.0
  S2-  S36  1  0.42888127  0.64313295  0.14226092  1.0
  S2-  S36  1  0.41936012  0.64349061  0.34318819  1.0
  S2-  S36  1  0.41348594  0.64406353  0.53906233  1.0
  S2-  S36  1  0.41116487  0.65171903  0.73663283  1.0
  S2-  S36  1  0.41090128  0.64370348  0.92873147  1.0
  S2-  S36  1  0.41493489  0.76760263  0.13686968  1.0
  S2-  S36  1  0.41196412  0.77165568  0.53796886  1.0
  S2-  S36  1  0.42004709  0.77702810  0.72938725  1.0
  S2-  S36  1  0.42648743  0.77302693  0.93441200  1.0
  S2-  S36  1  0.42971797  0.89986212  0.13985643  1.0
  S2-  S36  1  0.41371325  0.89564772  0.32981712  1.0
  S2-  S36  1  0.43462172  0.90064452  0.54240353  1.0
  S2-  S36  1  0.58937518  0.80587641  0.91153314  1.0
  S2-  S36  1  0.42029512  0.90386076  0.93936416  1.0
  S2-  S36  1  0.63694023  0.02418305  0.13683943  1.0
  S2-  S36  1  0.61424914  0.02061074  0.33825144  1.0
  S2-  S36  1  0.63207798  0.02447241  0.54020161  1.0
  S2-  S36  1  0.61146493  0.02651413  0.74145426  1.0
  S2-  S36  1  0.62310200  0.02381377  0.93787939  1.0
  S2-  S36  1  0.50609782  0.99646316  0.32313177  1.0
  S2-  S36  1  0.60827541  0.14629288  0.33230185  1.0
  S2-  S36  1  0.61720522  0.14747976  0.52174746  1.0
  S2-  S36  1  0.62230817  0.14837721  0.74176668  1.0
  S2-  S36  1  0.61966867  0.15148492  0.93767813  1.0
  S2-  S36  1  0.61897059  0.26995742  0.34057498  1.0
  S2-  S36  1  0.63724847  0.27909022  0.53909411  1.0
  S2-  S36  1  0.61923679  0.26825292  0.72547538  1.0
  S2-  S36  1  0.62369813  0.27258038  0.93090944  1.0
  S2-  S36  1  0.62311856  0.40099315  0.13886063  1.0
  S2-  S36  1  0.62862713  0.39579352  0.34182798  1.0
  S2-  S36  1  0.61842672  0.40196018  0.53246979  1.0
  S2-  S36  1  0.62144167  0.39869395  0.73952762  1.0
  S2-  S36  1  0.61626729  0.39935615  0.93605501  1.0
  S2-  S36  1  0.61757425  0.52756000  0.13904733  1.0
  S2-  S36  1  0.60755541  0.51999751  0.34128797  1.0
  S2-  S36  1  0.61105005  0.52471217  0.73327901  1.0
  S2-  S36  1  0.60558090  0.52451523  0.93429141  1.0
  S2-  S36  1  0.63777037  0.65161899  0.14652861  1.0
  S2-  S36  1  0.63120491  0.65019700  0.33263963  1.0
  S2-  S36  1  0.48706345  0.73893135  0.71105246  1.0
  S2-  S36  1  0.62038325  0.65031147  0.74292219  1.0
  S2-  S36  1  0.61131218  0.65013351  0.93947384  1.0
  S2-  S36  1  0.60730493  0.77162276  0.13536764  1.0
  S2-  S36  1  0.63100210  0.77159579  0.33933521  1.0
  S2-  S36  1  0.63585075  0.77899684  0.54253148  1.0
  S2-  S36  1  0.60016191  0.77595981  0.73691815  1.0
  S2-  S36  1  0.61221433  0.77526729  0.94579766  1.0
  S2-  S36  1  0.61547285  0.89265934  0.14053226  1.0
  S2-  S36  1  0.62087074  0.90027213  0.33825291  1.0
  S2-  S36  1  0.62504840  0.90011929  0.54218463  1.0
  S2-  S36  1  0.61752839  0.89546799  0.73619276  1.0
  S2-  S36  1  0.62395119  0.89549072  0.93078234  1.0
  S2-  S36  1  0.83698187  0.02846494  0.14151393  1.0
  S2-  S36  1  0.82559379  0.02417387  0.32765301  1.0
  S2-  S36  1  0.82504848  0.02772919  0.53405426  1.0
  S2-  S36  1  0.80353612  0.02056657  0.73147704  1.0
  S2-  S36  1  0.82918825  0.02725523  0.94600238  1.0
  S2-  S36  1  0.93269452  0.09351604  0.11530197  1.0
  S2-  S36  1  0.82081859  0.14277291  0.33699074  1.0
  S2-  S36  1  0.81975671  0.14643694  0.52393924  1.0
  S2-  S36  1  0.82203336  0.14961764  0.73514603  1.0
  S2-  S36  1  0.57733363  0.92520012  0.10384855  1.0
  S2-  S36  1  0.82786370  0.27639168  0.33001566  1.0
  S2-  S36  1  0.81301154  0.27278933  0.53577891  1.0
  S2-  S36  1  0.80551051  0.26859057  0.73082280  1.0
  S2-  S36  1  0.82662680  0.27480881  0.94115486  1.0
  S2-  S36  1  0.82764996  0.39453280  0.13419664  1.0
  S2-  S36  1  0.80762668  0.38854806  0.33188991  1.0
  S2-  S36  1  0.81460186  0.39424251  0.53847900  1.0
  S2-  S36  1  0.82773170  0.39925229  0.73016566  1.0
  S2-  S36  1  0.80967170  0.39893989  0.93349746  1.0
  S2-  S36  1  0.71836470  0.61331409  0.97538044  1.0
  S2-  S36  1  0.83444292  0.52400415  0.34350343  1.0
  S2-  S36  1  0.82606863  0.52178025  0.53600311  1.0
  S2-  S36  1  0.83537371  0.52533732  0.74419937  1.0
  S2-  S36  1  0.81887309  0.52167013  0.93472599  1.0
  S2-  S36  1  0.83216248  0.64794573  0.14404413  1.0
  S2-  S36  1  0.00949973  0.47092016  0.56424278  1.0
  S2-  S36  1  0.83272393  0.64519067  0.53492996  1.0
  S2-  S36  1  0.80121627  0.64306492  0.73204830  1.0
  S2-  S36  1  0.82267923  0.64959645  0.93454141  1.0
  S2-  S36  1  0.81694286  0.77570975  0.53080477  1.0
  S2-  S36  1  0.82261585  0.77720730  0.93782842  1.0
  S2-  S36  1  0.81809322  0.90200149  0.13177656  1.0
  S2-  S36  1  0.80803194  0.89545159  0.33746792  1.0
  S2-  S36  1  0.80626809  0.90197143  0.53697617  1.0
  S2-  S36  1  0.83271628  0.90199494  0.93642068  1.0
  S2-  S37  1  0.40538652  0.92545578  0.02003720  1.0
  S2-  S37  1  0.16885176  0.16827275  0.18312653  1.0
  S2-  S37  1  0.17122915  0.16830335  0.78825293  1.0
  S2-  S37  1  0.17271665  0.16335960  0.98903055  1.0
  S2-  S37  1  0.35717557  0.37442345  0.03387975  1.0
  S2-  S37  1  0.15866926  0.28988027  0.57496432  1.0
  S2-  S37  1  0.00483959  0.48296396  0.94347419  1.0
  S2-  S37  1  0.14725833  0.41422262  0.18061227  1.0
  S2-  S37  1  0.30210536  0.61364937  0.71945340  1.0
  S2-  S37  1  0.35643187  0.56524981  0.53972115  1.0
  S2-  S37  1  0.95682020  0.74239916  0.73043479  1.0
  S2-  S37  1  0.10391721  0.73217474  0.75321940  1.0
  S2-  S37  1  0.16359763  0.54021884  0.98572926  1.0
  S2-  S37  1  0.23288174  0.86020533  0.39482037  1.0
  S2-  S37  1  0.94682732  0.56326557  0.76073967  1.0
  S2-  S37  1  0.29658660  0.98533603  0.01882902  1.0
  S2-  S37  1  0.16480505  0.91164748  0.37671730  1.0
  S2-  S37  1  0.26968219  0.11884501  0.52866728  1.0
  S2-  S37  1  0.36214248  0.74285097  0.13620127  1.0
  S2-  S37  1  0.31644381  0.97573193  0.54279340  1.0
  S2-  S37  1  0.37221251  0.03938992  0.58845906  1.0
  S2-  S37  1  0.37151152  0.04030567  0.78493039  1.0
  S2-  S37  1  0.60224992  0.23373047  0.95026728  1.0
  S2-  S37  1  0.36337096  0.14960650  0.99420232  1.0
  S2-  S37  1  0.37262527  0.16432904  0.38609634  1.0
  S2-  S37  1  0.37968891  0.16576303  0.78763007  1.0
  S2-  S37  1  0.37415147  0.16347397  0.98435376  1.0
  S2-  S37  1  0.36867852  0.28489287  0.22679750  1.0
  S2-  S37  1  0.19156752  0.12102006  0.42180026  1.0
  S2-  S37  1  0.21120128  0.50239025  0.70737605  1.0
  S2-  S37  1  0.18407144  0.44779362  0.81371854  1.0
  S2-  S37  1  0.14919595  0.39436446  0.21744641  1.0
  S2-  S37  1  0.40175996  0.41917013  0.14281724  1.0
  S2-  S37  1  0.36594436  0.41295031  0.58276077  1.0
  S2-  S37  1  0.37930507  0.41533782  0.78678208  1.0
  S2-  S37  1  0.21079027  0.49282748  0.13233262  1.0
  S2-  S37  1  0.34534729  0.54235501  0.37480138  1.0
  S2-  S37  1  0.30266529  0.50085233  0.80359384  1.0
  S2-  S37  1  0.37054567  0.53962333  0.98407910  1.0
  S2-  S37  1  0.46089850  0.73359925  0.05431969  1.0
  S2-  S37  1  0.58697806  0.50746199  0.24433163  1.0
  S2-  S37  1  0.45066703  0.85094130  0.77947522  1.0
  S2-  S37  1  0.20189678  0.50769015  0.95860625  1.0
  S2-  S37  1  0.50758007  0.67256613  0.31708205  1.0
  S2-  S37  1  0.39359101  0.79211760  0.38379071  1.0
  S2-  S37  1  0.37605044  0.91052619  0.37850424  1.0
  S2-  S37  1  0.30055989  0.01998892  0.70388591  1.0
  S2-  S37  1  0.36545823  0.90959603  0.98041206  1.0
  S2-  S37  1  0.74382913  0.95431266  0.46644444  1.0
  S2-  S37  1  0.81015033  0.10850213  0.75663786  1.0
  S2-  S37  1  0.48630380  0.84087734  0.92670803  1.0
  S2-  S37  1  0.73259416  0.96545705  0.00050327  1.0
  S2-  S37  1  0.55473967  0.16413400  0.77898250  1.0
  S2-  S37  1  0.65669738  0.46411358  0.08903420  1.0
  S2-  S37  1  0.48684391  0.43722898  0.30119422  1.0
  S2-  S37  1  0.39210959  0.40611344  0.73641427  1.0
  S2-  S37  1  0.58224589  0.17704304  0.96889576  1.0
  S2-  S37  1  0.59453047  0.51196876  0.35333818  1.0
  S2-  S37  1  0.57510749  0.54477305  0.17891909  1.0
  S2-  S37  1  0.56615381  0.54347964  0.38839561  1.0
  S2-  S37  1  0.38043985  0.35397064  0.49088244  1.0
  S2-  S37  1  0.46954596  0.73922614  0.15865719  1.0
  S2-  S37  1  0.37687025  0.61277424  0.05808927  1.0
  S2-  S37  1  0.57347295  0.66575853  0.38520380  1.0
  S2-  S37  1  0.57958934  0.66340062  0.58259411  1.0
  S2-  S37  1  0.77117083  0.84404198  0.22636525  1.0
  S2-  S37  1  0.36080463  0.62329616  0.33624362  1.0
  S2-  S37  1  0.58893311  0.79347675  0.58742458  1.0
  S2-  S37  1  0.57108221  0.78777276  0.78752818  1.0
  S2-  S37  1  0.40252259  0.70008287  0.95049016  1.0
  S2-  S37  1  0.69406946  0.78110232  0.28886482  1.0
  S2-  S37  1  0.60998663  0.85893729  0.44529780  1.0
  S2-  S37  1  0.57664001  0.12391013  0.94253602  1.0
  S2-  S37  1  0.99917903  0.12958237  0.29951496  1.0
  S2-  S37  1  0.77901482  0.04197573  0.38692230  1.0
  S2-  S37  1  0.76240386  0.04038723  0.58067498  1.0
  S2-  S37  1  0.74746520  0.03594925  0.78413043  1.0
  S2-  S37  1  0.77038350  0.16808349  0.18950659  1.0
  S2-  S37  1  0.00353749  0.06049622  0.50391548  1.0
  S2-  S37  1  0.77333735  0.16478492  0.57853424  1.0
  S2-  S37  1  0.76328628  0.16171378  0.98476992  1.0
  S2-  S37  1  0.78332900  0.30395200  0.16622151  1.0
  S2-  S37  1  0.56948976  0.16619293  0.28110965  1.0
  S2-  S37  1  0.79713376  0.24732104  0.50146927  1.0
  S2-  S37  1  0.78088377  0.29260320  0.78770442  1.0
  S2-  S37  1  0.70162165  0.43409590  0.39341506  1.0
  S2-  S37  1  0.61263615  0.49228980  0.62198734  1.0
  S2-  S37  1  0.77117446  0.41469142  0.77383097  1.0
  S2-  S37  1  0.57587773  0.52837550  0.23362455  1.0
  S2-  S37  1  0.00656846  0.60646570  0.54701099  1.0
  S2-  S37  1  0.76357529  0.53519898  0.78405008  1.0
  S2-  S37  1  0.76329318  0.66311382  0.18127469  1.0
  S2-  S37  1  0.75839253  0.66301166  0.38936411  1.0
  S2-  S37  1  0.77176047  0.66184179  0.97140611  1.0
  S2-  S37  1  0.77741692  0.78292306  0.57947144  1.0
  S2-  S37  1  0.69301067  0.87202211  0.99741292  1.0
  S2-  S37  1  0.89115010  0.09578684  0.46075204  1.0
  S2-  S37  1  0.98242712  0.99982533  0.03428377  1.0
  S2-  S37  1  0.06859156  0.93296529  0.46003083  1.0
  S2-  S37  1  0.78465258  0.15680975  0.02906868  1.0
  S2-  S37  1  0.20518809  0.05056702  0.15940052  1.0
  S2-  S37  1  0.97104722  0.16011858  0.98630357  1.0
  S2-  S37  1  0.08835697  0.12733240  0.29211849  1.0
  S2-  S37  1  0.97389569  0.29252534  0.97085019  1.0
  S2-  S37  1  0.96627607  0.41513923  0.18058232  1.0
  S2-  S37  1  0.96396157  0.41420396  0.38641107  1.0
  S2-  S37  1  0.21584349  0.25229921  0.41026859  1.0
  S2-  S37  1  0.16167814  0.49038591  0.55746781  1.0
  S2-  S37  1  0.00061089  0.53996585  0.58986489  1.0
  S2-  S37  1  0.09426673  0.42281615  0.94903969  1.0
  S2-  S37  1  0.97573930  0.66468351  0.18250930  1.0
  S2-  S37  1  0.96397245  0.78712261  0.38945407  1.0
  S2-  S37  1  0.97045295  0.79587779  0.78194349  1.0
  S2-  S37  1  0.98858587  0.79336981  0.97891023  1.0
  S2-  S37  1  0.95547899  0.91242741  0.37236891  1.0
  S2-  S37  1  0.96703692  0.91473095  0.58517412  1.0
  S2-  S37  1  0.86544769  0.93260603  0.73944765  1.0
  S2-  S37  1  0.98587362  0.92086108  0.98807862  1.0
  S2-  S38  1  0.24636652  0.10521624  0.31917365  1.0
  S2-  S38  1  0.17337732  0.06633390  0.54502096  1.0
  S2-  S38  1  0.31317192  0.25426540  0.80196785  1.0
  S2-  S38  1  0.08801942  0.96083353  0.13478453  1.0
  S2-  S38  1  0.13116008  0.18660491  0.32822731  1.0
  S2-  S38  1  0.29497426  0.96448078  0.52986912  1.0
  S2-  S38  1  0.15844820  0.18939882  0.74664173  1.0
  S2-  S38  1  0.16889502  0.18736183  0.94485739  1.0
  S2-  S38  1  0.16230743  0.30994508  0.13195496  1.0
  S2-  S38  1  0.15477019  0.31693210  0.35320748  1.0
  S2-  S38  1  0.16268829  0.31680638  0.54216708  1.0
  S2-  S38  1  0.16081513  0.31023709  0.94501755  1.0
  S2-  S38  1  0.15010033  0.43432914  0.33877455  1.0
  S2-  S38  1  0.17381015  0.30147339  0.56078268  1.0
  S2-  S38  1  0.14502791  0.43173885  0.93457198  1.0
  S2-  S38  1  0.15944061  0.56404669  0.13635605  1.0
  S2-  S38  1  0.16406023  0.56030246  0.33818451  1.0
  S2-  S38  1  0.06990843  0.41786059  0.65262316  1.0
  S2-  S38  1  0.15968335  0.68722391  0.13297844  1.0
  S2-  S38  1  0.39213683  0.88942471  0.57500438  1.0
  S2-  S38  1  0.16779531  0.68490459  0.73198656  1.0
  S2-  S38  1  0.16819123  0.68805768  0.93546895  1.0
  S2-  S38  1  0.15919265  0.81786556  0.54679929  1.0
  S2-  S38  1  0.37274105  0.60972742  0.76664821  1.0
  S2-  S38  1  0.16867905  0.01595697  0.33056510  1.0
  S2-  S38  1  0.95659918  0.05588874  0.55721907  1.0
  S2-  S38  1  0.10989682  0.90808127  0.68830512  1.0
  S2-  S38  1  0.16371243  0.93360916  0.93845653  1.0
  S2-  S38  1  0.39278882  0.01693633  0.53288224  1.0
  S2-  S38  1  0.35602393  0.06263176  0.53606591  1.0
  S2-  S38  1  0.34893716  0.05948722  0.73561268  1.0
  S2-  S38  1  0.37814710  0.19089523  0.14704673  1.0
  S2-  S38  1  0.35005794  0.18449395  0.33403673  1.0
  S2-  S38  1  0.19784077  0.25091355  0.30309869  1.0
  S2-  S38  1  0.36114495  0.18908416  0.74652581  1.0
  S2-  S38  1  0.35895049  0.19082215  0.93801852  1.0
  S2-  S38  1  0.36519068  0.31234437  0.14255423  1.0
  S2-  S38  1  0.35945290  0.31630787  0.34010536  1.0
  S2-  S38  1  0.21969536  0.24789695  0.43376512  1.0
  S2-  S38  1  0.18241955  0.45634542  0.91735460  1.0
  S2-  S38  1  0.36117255  0.43361533  0.13487896  1.0
  S2-  S38  1  0.36931488  0.61203775  0.16259193  1.0
  S2-  S38  1  0.36882490  0.44247336  0.54553693  1.0
  S2-  S38  1  0.35352916  0.43699528  0.73748671  1.0
  S2-  S38  1  0.18278972  0.35354307  0.91711625  1.0
  S2-  S38  1  0.37319911  0.55816482  0.53289509  1.0
  S2-  S38  1  0.35459140  0.55759724  0.93629128  1.0
  S2-  S38  1  0.33331266  0.68283203  0.14170490  1.0
  S2-  S38  1  0.59978455  0.65177954  0.33439226  1.0
  S2-  S38  1  0.35921998  0.68794283  0.55831801  1.0
  S2-  S38  1  0.36712778  0.68449875  0.74251154  1.0
  S2-  S38  1  0.59784976  0.45115144  0.78966173  1.0
  S2-  S38  1  0.56242714  0.56768026  0.22240759  1.0
  S2-  S38  1  0.40214043  0.02843626  0.79239949  1.0
  S2-  S38  1  0.33519313  0.97025071  0.84653011  1.0
  S2-  S38  1  0.35668660  0.80995860  0.93998264  1.0
  S2-  S38  1  0.46599467  0.18026807  0.96575153  1.0
  S2-  S38  1  0.57907068  0.79925354  0.76027830  1.0
  S2-  S38  1  0.37305139  0.10448441  0.89967028  1.0
  S2-  S38  1  0.56166696  0.06443152  0.53893041  1.0
  S2-  S38  1  0.56900033  0.06339978  0.94078723  1.0
  S2-  S38  1  0.56350201  0.18603808  0.14221585  1.0
  S2-  S38  1  0.78318546  0.21198188  0.53473699  1.0
  S2-  S38  1  0.55769890  0.19018246  0.54081090  1.0
  S2-  S38  1  0.55511171  0.18595109  0.73191182  1.0
  S2-  S38  1  0.56511637  0.18816645  0.94288102  1.0
  S2-  S38  1  0.57992051  0.31766877  0.15215251  1.0
  S2-  S38  1  0.45600760  0.43630725  0.53535628  1.0
  S2-  S38  1  0.37197457  0.47886250  0.61175327  1.0
  S2-  S38  1  0.74589551  0.06766884  0.90365909  1.0
  S2-  S38  1  0.45335197  0.50930042  0.80930126  1.0
  S2-  S38  1  0.57977162  0.44053035  0.14729195  1.0
  S2-  S38  1  0.58279925  0.51957515  0.50157081  1.0
  S2-  S38  1  0.49370028  0.36939452  0.40223170  1.0
  S2-  S38  1  0.55341678  0.43477725  0.73611949  1.0
  S2-  S38  1  0.55978075  0.43763024  0.94055040  1.0
  S2-  S38  1  0.51621373  0.71861343  0.98582278  1.0
  S2-  S38  1  0.80125767  0.49896339  0.19018809  1.0
  S2-  S38  1  0.54597848  0.55965733  0.54614706  1.0
  S2-  S38  1  0.56459857  0.56312387  0.73972436  1.0
  S2-  S38  1  0.55045727  0.55838253  0.93659530  1.0
  S2-  S38  1  0.56886464  0.68294150  0.13725949  1.0
  S2-  S38  1  0.57135061  0.69025175  0.34041041  1.0
  S2-  S38  1  0.56949663  0.68582250  0.53604703  1.0
  S2-  S38  1  0.53924945  0.60390453  0.52328713  1.0
  S2-  S38  1  0.55797215  0.68407702  0.93667298  1.0
  S2-  S38  1  0.57782658  0.57495236  0.91355610  1.0
  S2-  S38  1  0.55537434  0.81225444  0.54150804  1.0
  S2-  S38  1  0.56116980  0.74079824  0.96592021  1.0
  S2-  S38  1  0.70490617  0.13875437  0.28203450  1.0
  S2-  S38  1  0.57081317  0.93901443  0.53614231  1.0
  S2-  S38  1  0.98031870  0.94980676  0.38423047  1.0
  S2-  S38  1  0.62884686  0.82482817  0.43640698  1.0
  S2-  S38  1  0.60574735  0.87207538  0.33175036  1.0
  S2-  S38  1  0.76213395  0.06417768  0.74332513  1.0
  S2-  S38  1  0.77165859  0.06297646  0.94262163  1.0
  S2-  S38  1  0.53656739  0.97437992  0.24753316  1.0
  S2-  S38  1  0.76410159  0.18985219  0.35127230  1.0
  S2-  S38  1  0.76582842  0.19177739  0.54405021  1.0
  S2-  S38  1  0.76225397  0.19626195  0.93989252  1.0
  S2-  S38  1  0.99935094  0.18125010  0.46549257  1.0
  S2-  S38  1  0.76137941  0.30768178  0.54186258  1.0
  S2-  S38  1  0.76514914  0.31506586  0.74111044  1.0
  S2-  S38  1  0.76230995  0.31379335  0.93977605  1.0
  S2-  S38  1  0.90908510  0.19959453  0.98320101  1.0
  S2-  S38  1  0.74580558  0.43185479  0.33050245  1.0
  S2-  S38  1  0.67257240  0.60124578  0.61297908  1.0
  S2-  S38  1  0.77814213  0.43975442  0.74637908  1.0
  S2-  S38  1  0.76921422  0.44084055  0.94533510  1.0
  S2-  S38  1  0.72086737  0.46497664  0.28519321  1.0
  S2-  S38  1  0.75318509  0.56117581  0.53805240  1.0
  S2-  S38  1  0.76223676  0.55338351  0.73608239  1.0
  S2-  S38  1  0.70960933  0.75230489  0.09832645  1.0
  S2-  S38  1  0.77228174  0.68272745  0.33866751  1.0
  S2-  S38  1  0.75515958  0.68619703  0.54646423  1.0
  S2-  S38  1  0.76039680  0.68828297  0.74578832  1.0
  S2-  S38  1  0.75238437  0.68673552  0.94790239  1.0
  S2-  S38  1  0.75961198  0.80866920  0.13527123  1.0
  S2-  S38  1  0.59947134  0.63261701  0.47584903  1.0
  S2-  S38  1  0.56722598  0.80098411  0.56903762  1.0
  S2-  S38  1  0.73630280  0.81381185  0.73778348  1.0
  S2-  S38  1  0.77164510  0.81147170  0.94106656  1.0
  S2-  S38  1  0.58806563  0.95626096  0.22656033  1.0
  S2-  S38  1  0.76287143  0.94260469  0.34165215  1.0
  S2-  S38  1  0.58206146  0.14461210  0.82909462  1.0
  S2-  S38  1  0.00958846  0.19630959  0.29164911  1.0
  S2-  S38  1  0.06655732  0.92267744  0.35776418  1.0
  S2-  S38  1  0.87118167  0.27126497  0.73360359  1.0
  S2-  S38  1  0.76204912  0.93985823  0.14459748  1.0
  S2-  S38  1  0.96826627  0.18404501  0.14467590  1.0
  S2-  S38  1  0.98603365  0.19560605  0.55479099  1.0
  S2-  S38  1  0.76386571  0.04779175  0.75623562  1.0
  S2-  S38  1  0.96329806  0.19330568  0.94185199  1.0
  S2-  S38  1  0.96395895  0.31530813  0.12744714  1.0
  S2-  S38  1  0.95470998  0.31860979  0.34846340  1.0
  S2-  S38  1  0.20163467  0.50823657  0.68550471  1.0
  S2-  S38  1  0.95138118  0.31253868  0.74352602  1.0
  S2-  S38  1  0.88024697  0.20875543  0.80315911  1.0
  S2-  S38  1  0.94107446  0.43750869  0.52877665  1.0
  S2-  S38  1  0.80261811  0.62180840  0.59801565  1.0
  S2-  S38  1  0.95590173  0.43908600  0.93775480  1.0
  S2-  S38  1  0.96237234  0.56284197  0.14195149  1.0
  S2-  S38  1  0.95942172  0.55831859  0.53361608  1.0
  S2-  S38  1  0.96875241  0.55721831  0.74993307  1.0
  S2-  S38  1  0.96506469  0.78854949  0.91265214  1.0
  S2-  S38  1  0.09263812  0.93099986  0.23585028  1.0
  S2-  S38  1  0.96768230  0.68863100  0.74572498  1.0
  S2-  S38  1  0.96216448  0.68988526  0.93751600  1.0
  S2-  S38  1  0.87178355  0.88087996  0.31582566  1.0
  S2-  S38  1  0.95800076  0.81421677  0.94678899  1.0
  S2-  S38  1  0.95388546  0.93835864  0.34307148  1.0
  S2-  S38  1  0.96268856  0.93628930  0.53888754  1.0
  S2-  S38  1  0.96966137  0.93889889  0.74400057  1.0
  S2-  S38  1  0.96754511  0.93287754  0.94363447  1.0
  S2-  S39  1  0.08509969  0.07883423  0.14173214  1.0
  S2-  S39  1  0.09381714  0.08588849  0.33934191  1.0
  S2-  S39  1  0.09122908  0.08119527  0.93167276  1.0
  S2-  S39  1  0.08786423  0.21078033  0.14465867  1.0
  S2-  S39  1  0.08762755  0.20881881  0.34368921  1.0
  S2-  S39  1  0.08081867  0.20674581  0.54477634  1.0
  S2-  S39  1  0.08597545  0.21156825  0.74645189  1.0
  S2-  S39  1  0.08881066  0.20943947  0.94783123  1.0
  S2-  S39  1  0.06873391  0.32925815  0.13840157  1.0
  S2-  S39  1  0.08449777  0.33638850  0.33949248  1.0
  S2-  S39  1  0.09146109  0.33070439  0.54073676  1.0
  S2-  S39  1  0.08313909  0.33592781  0.75057850  1.0
  S2-  S39  1  0.07677269  0.33242425  0.93637207  1.0
  S2-  S39  1  0.08199232  0.45110647  0.13470552  1.0
  S2-  S39  1  0.08306011  0.45788945  0.33931363  1.0
  S2-  S39  1  0.09047967  0.45968318  0.53452819  1.0
  S2-  S39  1  0.08249033  0.45762552  0.74022399  1.0
  S2-  S39  1  0.07686291  0.58420961  0.14545933  1.0
  S2-  S39  1  0.05883246  0.58302489  0.32581449  1.0
  S2-  S39  1  0.08849592  0.58630360  0.53775762  1.0
  S2-  S39  1  0.09936147  0.58801695  0.74414272  1.0
  S2-  S39  1  0.08242674  0.58532701  0.94697226  1.0
  S2-  S39  1  0.07606597  0.71219290  0.13307773  1.0
  S2-  S39  1  0.06692779  0.70455626  0.33429009  1.0
  S2-  S39  1  0.09224015  0.70202051  0.54084357  1.0
  S2-  S39  1  0.08020734  0.70487004  0.73865120  1.0
  S2-  S39  1  0.25970009  0.65433658  0.88417660  1.0
  S2-  S39  1  0.08846916  0.83569296  0.14624177  1.0
  S2-  S39  1  0.10942089  0.83661877  0.34697431  1.0
  S2-  S39  1  0.10072230  0.83654437  0.53982410  1.0
  S2-  S39  1  0.09710166  0.83218112  0.74043462  1.0
  S2-  S39  1  0.08423997  0.83577698  0.94549523  1.0
  S2-  S39  1  0.07601175  0.95304148  0.14092205  1.0
  S2-  S39  1  0.10108681  0.96368102  0.34698812  1.0
  S2-  S39  1  0.09281068  0.95623936  0.54173406  1.0
  S2-  S39  1  0.10558660  0.95677559  0.73419707  1.0
  S2-  S39  1  0.09021194  0.96163617  0.94155722  1.0
  S2-  S39  1  0.30101050  0.08077313  0.13178439  1.0
  S2-  S39  1  0.29577048  0.07898744  0.33900615  1.0
  S2-  S39  1  0.30054826  0.08428437  0.73728435  1.0
  S2-  S39  1  0.29911505  0.08413596  0.93930777  1.0
  S2-  S39  1  0.30111693  0.20735232  0.13689074  1.0
  S2-  S39  1  0.28067357  0.21254474  0.34190047  1.0
  S2-  S39  1  0.27656186  0.20388621  0.54192761  1.0
  S2-  S39  1  0.27552658  0.20264629  0.73495929  1.0
  S2-  S39  1  0.29843312  0.21092749  0.94151795  1.0
  S2-  S39  1  0.27974768  0.33175067  0.14303569  1.0
  S2-  S39  1  0.26347128  0.33048355  0.53407146  1.0
  S2-  S39  1  0.26533026  0.33286822  0.73007111  1.0
  S2-  S39  1  0.28884935  0.33170971  0.93612413  1.0
  S2-  S39  1  0.28158538  0.46078429  0.13881070  1.0
  S2-  S39  1  0.29908563  0.46251838  0.34061119  1.0
  S2-  S39  1  0.27764196  0.45721272  0.54957722  1.0
  S2-  S39  1  0.27919521  0.45800915  0.73854959  1.0
  S2-  S39  1  0.29166820  0.45891610  0.94779458  1.0
  S2-  S39  1  0.28778537  0.58309216  0.14308254  1.0
  S2-  S39  1  0.27873028  0.58533741  0.33684055  1.0
  S2-  S39  1  0.30295294  0.58802277  0.74183013  1.0
  S2-  S39  1  0.27142760  0.57750594  0.93507571  1.0
  S2-  S39  1  0.26436410  0.70830166  0.13332129  1.0
  S2-  S39  1  0.28982034  0.70910837  0.33824591  1.0
  S2-  S39  1  0.29097136  0.70502007  0.54011601  1.0
  S2-  S39  1  0.30946278  0.71172791  0.74085955  1.0
  S2-  S39  1  0.27864625  0.71162710  0.93340788  1.0
  S2-  S39  1  0.28820828  0.83594176  0.33519347  1.0
  S2-  S39  1  0.27118756  0.82928118  0.54238128  1.0
  S2-  S39  1  0.30806808  0.83906960  0.75234552  1.0
  S2-  S39  1  0.27394867  0.82766756  0.94243928  1.0
  S2-  S39  1  0.29780084  0.96134702  0.13633821  1.0
  S2-  S39  1  0.28657591  0.95854483  0.53959860  1.0
  S2-  S39  1  0.27150803  0.95237975  0.73039480  1.0
  S2-  S39  1  0.25597695  0.95723252  0.93159358  1.0
  S2-  S39  1  0.47549707  0.08488630  0.13638445  1.0
  S2-  S39  1  0.48751591  0.08811529  0.33941199  1.0
  S2-  S39  1  0.48705457  0.08004674  0.53822404  1.0
  S2-  S39  1  0.48516120  0.08388083  0.73283551  1.0
  S2-  S39  1  0.47355377  0.08245007  0.94292067  1.0
  S2-  S39  1  0.47675690  0.21405947  0.13680801  1.0
  S2-  S39  1  0.48984135  0.21184868  0.33890767  1.0
  S2-  S39  1  0.48796314  0.21329638  0.54626190  1.0
  S2-  S39  1  0.49242955  0.20810298  0.73873190  1.0
  S2-  S39  1  0.47431938  0.20765239  0.93712439  1.0
  S2-  S39  1  0.45407312  0.40755214  0.93521230  1.0
  S2-  S39  1  0.46885561  0.33151386  0.34105309  1.0
  S2-  S39  1  0.50715297  0.33007739  0.53636860  1.0
  S2-  S39  1  0.46651529  0.32693745  0.73447455  1.0
  S2-  S39  1  0.49089094  0.33260185  0.93730194  1.0
  S2-  S39  1  0.48302066  0.45672464  0.13715043  1.0
  S2-  S39  1  0.49715520  0.45588076  0.33723002  1.0
  S2-  S39  1  0.48285921  0.45672826  0.53766160  1.0
  S2-  S39  1  0.46274610  0.46044738  0.73221686  1.0
  S2-  S39  1  0.47699216  0.45803276  0.93071401  1.0
  S2-  S39  1  0.49661084  0.58089228  0.15097757  1.0
  S2-  S39  1  0.49041440  0.58172569  0.33675275  1.0
  S2-  S39  1  0.49265840  0.58911885  0.74650031  1.0
  S2-  S39  1  0.49367487  0.70758248  0.13630279  1.0
  S2-  S39  1  0.49639808  0.71292803  0.34120535  1.0
  S2-  S39  1  0.47585635  0.70520923  0.52788797  1.0
  S2-  S39  1  0.48064964  0.70774939  0.73748126  1.0
  S2-  S39  1  0.48984059  0.70705026  0.94679280  1.0
  S2-  S39  1  0.47666286  0.83580564  0.13280996  1.0
  S2-  S39  1  0.47828846  0.83449540  0.34308352  1.0
  S2-  S39  1  0.48337146  0.83385494  0.74439556  1.0
  S2-  S39  1  0.47477724  0.83546833  0.93652066  1.0
  S2-  S39  1  0.48999822  0.96033918  0.13432002  1.0
  S2-  S39  1  0.48052087  0.96075049  0.53776747  1.0
  S2-  S39  1  0.47938449  0.95921406  0.73302258  1.0
  S2-  S39  1  0.46667813  0.95079006  0.93434750  1.0
  S2-  S39  1  0.68789563  0.08534197  0.14543201  1.0
  S2-  S39  1  0.68327354  0.08335220  0.33979016  1.0
  S2-  S39  1  0.67567987  0.07882514  0.52967575  1.0
  S2-  S39  1  0.68860692  0.08683951  0.94786626  1.0
  S2-  S39  1  0.68357873  0.20912638  0.14742817  1.0
  S2-  S39  1  0.69147676  0.20902649  0.34042193  1.0
  S2-  S39  1  0.68708453  0.20481355  0.54030117  1.0
  S2-  S39  1  0.69365803  0.21212795  0.74350145  1.0
  S2-  S39  1  0.69321195  0.20556933  0.93514589  1.0
  S2-  S39  1  0.68508399  0.33112916  0.34135789  1.0
  S2-  S39  1  0.67128359  0.33305853  0.53397048  1.0
  S2-  S39  1  0.67423074  0.32910795  0.93529546  1.0
  S2-  S39  1  0.69098707  0.46478956  0.15391011  1.0
  S2-  S39  1  0.66933044  0.45237291  0.32802134  1.0
  S2-  S39  1  0.68877683  0.46224839  0.53838172  1.0
  S2-  S39  1  0.78917933  0.45597318  0.63539536  1.0
  S2-  S39  1  0.68752498  0.45854269  0.93857228  1.0
  S2-  S39  1  0.67891852  0.58757687  0.14545846  1.0
  S2-  S39  1  0.69610803  0.58137044  0.33925002  1.0
  S2-  S39  1  0.67763201  0.58040026  0.53745490  1.0
  S2-  S39  1  0.66529343  0.58519205  0.72948757  1.0
  S2-  S39  1  0.67572121  0.57617896  0.94242392  1.0
  S2-  S39  1  0.69272730  0.70885904  0.13623195  1.0
  S2-  S39  1  0.92248244  0.52966207  0.10083393  1.0
  S2-  S39  1  0.52040251  0.76879024  0.52195297  1.0
  S2-  S39  1  0.67592923  0.70935023  0.74604647  1.0
  S2-  S39  1  0.68236499  0.70812556  0.94013652  1.0
  S2-  S39  1  0.69590176  0.83700250  0.14187611  1.0
  S2-  S39  1  0.67971255  0.83540775  0.33416450  1.0
  S2-  S39  1  0.68944680  0.83383093  0.53935067  1.0
  S2-  S39  1  0.68818985  0.83684640  0.74332753  1.0
  S2-  S39  1  0.69138159  0.83206696  0.93070321  1.0
  S2-  S39  1  0.68329038  0.96000008  0.13910984  1.0
  S2-  S39  1  0.68226864  0.95930113  0.33723975  1.0
  S2-  S39  1  0.68020077  0.95209313  0.53844770  1.0
  S2-  S39  1  0.69857342  0.96546744  0.73995348  1.0
  S2-  S39  1  0.88141977  0.08414731  0.13817245  1.0
  S2-  S39  1  0.90038222  0.08224735  0.33886611  1.0
  S2-  S39  1  0.88502556  0.08854782  0.54316087  1.0
  S2-  S39  1  0.91062324  0.09308557  0.74234552  1.0
  S2-  S39  1  0.89585049  0.08274173  0.93605651  1.0
  S2-  S39  1  0.87788952  0.21552000  0.14572633  1.0
  S2-  S39  1  0.88558135  0.21060725  0.33094497  1.0
  S2-  S39  1  0.88258660  0.20609424  0.74384909  1.0
  S2-  S39  1  0.90375048  0.21148293  0.94649328  1.0
  S2-  S39  1  0.88164397  0.33591713  0.13267669  1.0
  S2-  S39  1  0.87036549  0.33326772  0.33896621  1.0
  S2-  S39  1  0.88795376  0.32947962  0.52950018  1.0
  S2-  S39  1  0.87866885  0.33072086  0.93927552  1.0
  S2-  S39  1  0.88183913  0.46491974  0.14286230  1.0
  S2-  S39  1  0.88086456  0.45483734  0.32995128  1.0
  S2-  S39  1  0.88089655  0.45669129  0.72889849  1.0
  S2-  S39  1  0.89613937  0.45497467  0.93968925  1.0
  S2-  S39  1  0.09937783  0.68222064  0.89557875  1.0
  S2-  S39  1  0.87310556  0.58490826  0.33804294  1.0
  S2-  S39  1  0.88257604  0.58090426  0.54250447  1.0
  S2-  S39  1  0.87753603  0.57876109  0.73083899  1.0
  S2-  S39  1  0.86384624  0.58144505  0.93072475  1.0
  S2-  S39  1  0.89460165  0.71044514  0.14147087  1.0
  S2-  S39  1  0.89167841  0.70473600  0.33890208  1.0
  S2-  S39  1  0.87007340  0.70702392  0.53763378  1.0
  S2-  S39  1  0.88567003  0.71390535  0.73945152  1.0
  S2-  S39  1  0.89305983  0.70771632  0.93960395  1.0
  S2-  S39  1  0.88280655  0.83415670  0.14667182  1.0
  S2-  S39  1  0.89977108  0.83199025  0.33831662  1.0
  S2-  S39  1  0.88839909  0.83567297  0.54864329  1.0
  S2-  S39  1  0.89789113  0.83270905  0.74143799  1.0
  S2-  S39  1  0.88626425  0.83160348  0.94246846  1.0
  S2-  S39  1  0.86395253  0.96186018  0.13958440  1.0
  S2-  S39  1  0.86464292  0.95518160  0.32473384  1.0
  S2-  S39  1  0.89973492  0.95534507  0.54291796  1.0
  S2-  S39  1  0.89495397  0.95818547  0.73627568  1.0
  S2-  S39  1  0.89167942  0.95928154  0.94400485  1.0
  S2-  S40  1  0.02593992  0.10625222  0.18679264  1.0
  S2-  S40  1  0.02893035  0.09980023  0.57537598  1.0
  S2-  S40  1  0.02751675  0.10232814  0.77521845  1.0
  S2-  S40  1  0.04099426  0.10499425  0.97983271  1.0
  S2-  S40  1  0.01634860  0.22936267  0.17142564  1.0
  S2-  S40  1  0.03717503  0.22815225  0.37865557  1.0
  S2-  S40  1  0.04314443  0.22800868  0.58218453  1.0
  S2-  S40  1  0.04136704  0.22657159  0.77791512  1.0
  S2-  S40  1  0.04720056  0.23001122  0.98002699  1.0
  S2-  S40  1  0.01569886  0.35419640  0.18055602  1.0
  S2-  S40  1  0.01973433  0.35015063  0.37484870  1.0
  S2-  S40  1  0.04669349  0.36101729  0.59036114  1.0
  S2-  S40  1  0.01806365  0.35149530  0.77678484  1.0
  S2-  S40  1  0.03694782  0.35026823  0.98157312  1.0
  S2-  S40  1  0.03115826  0.47981893  0.18068165  1.0
  S2-  S40  1  0.05790340  0.48111000  0.39022230  1.0
  S2-  S40  1  0.02438516  0.47705854  0.58158692  1.0
  S2-  S40  1  0.02541202  0.48132707  0.78100532  1.0
  S2-  S40  1  0.04693097  0.47949082  0.98218302  1.0
  S2-  S40  1  0.03279387  0.60074543  0.17456164  1.0
  S2-  S40  1  0.04540136  0.60509641  0.38792825  1.0
  S2-  S40  1  0.03251034  0.60657885  0.58048450  1.0
  S2-  S40  1  0.04426068  0.60712981  0.79273421  1.0
  S2-  S40  1  0.04578781  0.60357930  0.98405902  1.0
  S2-  S40  1  0.04912507  0.73023300  0.18068696  1.0
  S2-  S40  1  0.04464590  0.73216930  0.39157285  1.0
  S2-  S40  1  0.03161088  0.72427591  0.56929394  1.0
  S2-  S40  1  0.03763055  0.72291706  0.77927290  1.0
  S2-  S40  1  0.04470256  0.72738572  0.97362490  1.0
  S2-  S40  1  0.01903858  0.84991818  0.37600124  1.0
  S2-  S40  1  0.04650757  0.85295622  0.79138177  1.0
  S2-  S40  1  0.04576130  0.85388149  0.98120614  1.0
  S2-  S40  1  0.02996366  0.97840475  0.18207651  1.0
  S2-  S40  1  0.03611602  0.97629182  0.57431522  1.0
  S2-  S40  1  0.05500865  0.97998628  0.78481541  1.0
  S2-  S40  1  0.04293610  0.98150963  0.98026533  1.0
  S2-  S40  1  0.23083055  0.10046383  0.17816531  1.0
  S2-  S40  1  0.22459347  0.09963590  0.36942078  1.0
  S2-  S40  1  0.24995755  0.10182687  0.58334553  1.0
  S2-  S40  1  0.23696914  0.10453942  0.77136844  1.0
  S2-  S40  1  0.23338100  0.10669936  0.99067715  1.0
  S2-  S40  1  0.23005265  0.22710500  0.18394526  1.0
  S2-  S40  1  0.23894991  0.22801453  0.38004459  1.0
  S2-  S40  1  0.22689149  0.22594338  0.57860341  1.0
  S2-  S40  1  0.23876661  0.22912029  0.77761356  1.0
  S2-  S40  1  0.24271234  0.22263057  0.98070944  1.0
  S2-  S40  1  0.22638652  0.35009404  0.57597581  1.0
  S2-  S40  1  0.21969143  0.35407323  0.78629708  1.0
  S2-  S40  1  0.23534503  0.36058449  0.97948776  1.0
  S2-  S40  1  0.23446875  0.48235248  0.17624743  1.0
  S2-  S40  1  0.23754620  0.48352403  0.37724692  1.0
  S2-  S40  1  0.24193904  0.47958299  0.77234046  1.0
  S2-  S40  1  0.23572655  0.48568437  0.98471449  1.0
  S2-  S40  1  0.23903002  0.60369383  0.19035622  1.0
  S2-  S40  1  0.22264261  0.60070529  0.37685365  1.0
  S2-  S40  1  0.24048248  0.60341915  0.58158100  1.0
  S2-  S40  1  0.23084306  0.60489778  0.77136566  1.0
  S2-  S40  1  0.22644946  0.60023985  0.97237700  1.0
  S2-  S40  1  0.22360586  0.73018921  0.18097117  1.0
  S2-  S40  1  0.24174384  0.73098764  0.38737512  1.0
  S2-  S40  1  0.21608685  0.72997546  0.57953707  1.0
  S2-  S40  1  0.23578646  0.72751393  0.77714262  1.0
  S2-  S40  1  0.23667946  0.72472065  0.98373411  1.0
  S2-  S40  1  0.22315439  0.84626083  0.17584096  1.0
  S2-  S40  1  0.21889737  0.84914832  0.37981762  1.0
  S2-  S40  1  0.24344505  0.85256234  0.57111849  1.0
  S2-  S40  1  0.23876891  0.85187577  0.78630934  1.0
  S2-  S40  1  0.24940399  0.84801216  0.99085682  1.0
  S2-  S40  1  0.21724936  0.97616217  0.18183857  1.0
  S2-  S40  1  0.22473771  0.97526544  0.36932804  1.0
  S2-  S40  1  0.21861140  0.97526216  0.58037079  1.0
  S2-  S40  1  0.24884366  0.97544399  0.77835377  1.0
  S2-  S40  1  0.21980078  0.97293405  0.96850297  1.0
  S2-  S40  1  0.42158686  0.10275453  0.17526344  1.0
  S2-  S40  1  0.43193395  0.10421194  0.37968285  1.0
  S2-  S40  1  0.42582446  0.10603974  0.57072729  1.0
  S2-  S40  1  0.43294754  0.10857668  0.78424776  1.0
  S2-  S40  1  0.41160801  0.09775438  0.97309249  1.0
  S2-  S40  1  0.43181388  0.23023029  0.18594831  1.0
  S2-  S40  1  0.42899314  0.22757433  0.37411134  1.0
  S2-  S40  1  0.42970234  0.22457505  0.57775997  1.0
  S2-  S40  1  0.43015976  0.22995820  0.78524359  1.0
  S2-  S40  1  0.44747865  0.22803556  0.98421069  1.0
  S2-  S40  1  0.42686654  0.35017573  0.17113365  1.0
  S2-  S40  1  0.43166457  0.34623066  0.58040017  1.0
  S2-  S40  1  0.42848548  0.35250488  0.78330521  1.0
  S2-  S40  1  0.41548494  0.35219388  0.98474487  1.0
  S2-  S40  1  0.42751872  0.47360290  0.17528832  1.0
  S2-  S40  1  0.44513747  0.47542270  0.37252628  1.0
  S2-  S40  1  0.42543998  0.47333674  0.56588156  1.0
  S2-  S40  1  0.44523642  0.48133576  0.78464414  1.0
  S2-  S40  1  0.44210974  0.47659265  0.98643055  1.0
  S2-  S40  1  0.42807315  0.60589721  0.17673552  1.0
  S2-  S40  1  0.41850343  0.60084423  0.38752495  1.0
  S2-  S40  1  0.45216349  0.60544569  0.58099782  1.0
  S2-  S40  1  0.43528821  0.60850527  0.78266670  1.0
  S2-  S40  1  0.44062620  0.60111209  0.97822320  1.0
  S2-  S40  1  0.44041485  0.72558661  0.18107942  1.0
  S2-  S40  1  0.42906446  0.72958168  0.57651187  1.0
  S2-  S40  1  0.45174045  0.72770837  0.78533403  1.0
  S2-  S40  1  0.43269808  0.72628281  0.98152433  1.0
  S2-  S40  1  0.44146682  0.84819452  0.17894998  1.0
  S2-  S40  1  0.43403673  0.85360198  0.38647902  1.0
  S2-  S40  1  0.44619835  0.85668993  0.58418573  1.0
  S2-  S40  1  0.42210196  0.84490471  0.78137946  1.0
  S2-  S40  1  0.41446476  0.85809524  0.98348959  1.0
  S2-  S40  1  0.45492004  0.97878441  0.18491514  1.0
  S2-  S40  1  0.43285067  0.97816505  0.37629313  1.0
  S2-  S40  1  0.43066029  0.97515725  0.57825187  1.0
  S2-  S40  1  0.43414411  0.97785208  0.77929494  1.0
  S2-  S40  1  0.43003824  0.97974267  0.98164903  1.0
  S2-  S40  1  0.63429026  0.09984655  0.18148746  1.0
  S2-  S40  1  0.62522066  0.10121304  0.37835059  1.0
  S2-  S40  1  0.64217813  0.09897893  0.57410597  1.0
  S2-  S40  1  0.61646106  0.10456873  0.77692427  1.0
  S2-  S40  1  0.63974648  0.10402094  0.98465428  1.0
  S2-  S40  1  0.63227213  0.22560471  0.17953025  1.0
  S2-  S40  1  0.63751395  0.22678183  0.38002550  1.0
  S2-  S40  1  0.62095793  0.22612258  0.56905170  1.0
  S2-  S40  1  0.63964040  0.23033104  0.77478946  1.0
  S2-  S40  1  0.63745929  0.22937615  0.97894132  1.0
  S2-  S40  1  0.64590470  0.34816587  0.17703620  1.0
  S2-  S40  1  0.60649452  0.35404503  0.37366447  1.0
  S2-  S40  1  0.61660616  0.35485505  0.57793217  1.0
  S2-  S40  1  0.63490583  0.35659466  0.77790352  1.0
  S2-  S40  1  0.64333794  0.48049193  0.17937583  1.0
  S2-  S40  1  0.63976532  0.48339257  0.37823865  1.0
  S2-  S40  1  0.64018974  0.47812043  0.58655877  1.0
  S2-  S40  1  0.63625781  0.48015425  0.77348945  1.0
  S2-  S40  1  0.60981830  0.47449611  0.97324082  1.0
  S2-  S40  1  0.63432587  0.60648000  0.17962033  1.0
  S2-  S40  1  0.63513403  0.60337301  0.37709543  1.0
  S2-  S40  1  0.63754752  0.60634591  0.58320184  1.0
  S2-  S40  1  0.64141419  0.60400457  0.78890459  1.0
  S2-  S40  1  0.63174051  0.61107286  0.98810198  1.0
  S2-  S40  1  0.65028357  0.73218988  0.18855354  1.0
  S2-  S40  1  0.61950020  0.72409194  0.37851144  1.0
  S2-  S40  1  0.64297601  0.73080664  0.58236911  1.0
  S2-  S40  1  0.62283614  0.72717178  0.98155677  1.0
  S2-  S40  1  0.63192305  0.85290236  0.17963464  1.0
  S2-  S40  1  0.44587997  0.92200513  0.61736557  1.0
  S2-  S40  1  0.65333229  0.85640781  0.58558627  1.0
  S2-  S40  1  0.62720130  0.85581153  0.78562577  1.0
  S2-  S40  1  0.62770842  0.84943590  0.97937094  1.0
  S2-  S40  1  0.64312291  0.97583059  0.38228484  1.0
  S2-  S40  1  0.62187981  0.97421095  0.57754490  1.0
  S2-  S40  1  0.62767797  0.97932047  0.77203764  1.0
  S2-  S40  1  0.62911470  0.98127398  0.98406454  1.0
  S2-  S40  1  0.83725675  0.10146508  0.17947921  1.0
  S2-  S40  1  0.83947556  0.11052875  0.38550757  1.0
  S2-  S40  1  0.82656604  0.10265400  0.57080399  1.0
  S2-  S40  1  0.82002384  0.10768806  0.98171861  1.0
  S2-  S40  1  0.82987667  0.22783138  0.17873100  1.0
  S2-  S40  1  0.83870435  0.23166090  0.38460359  1.0
  S2-  S40  1  0.82494171  0.22221445  0.57122374  1.0
  S2-  S40  1  0.84688203  0.23301217  0.77949507  1.0
  S2-  S40  1  0.82285569  0.22650779  0.98623491  1.0
  S2-  S40  1  0.83356612  0.35043199  0.17678740  1.0
  S2-  S40  1  0.83138400  0.35521419  0.38978657  1.0
  S2-  S40  1  0.83916720  0.35648482  0.57566437  1.0
  S2-  S40  1  0.85364595  0.34855088  0.78563141  1.0
  S2-  S40  1  0.83392878  0.34881496  0.98171480  1.0
  S2-  S40  1  0.83133855  0.47494457  0.17805960  1.0
  S2-  S40  1  0.81650994  0.47634481  0.37241649  1.0
  S2-  S40  1  0.82726368  0.47227347  0.56778385  1.0
  S2-  S40  1  0.82633367  0.47790471  0.77431302  1.0
  S2-  S40  1  0.84124779  0.48020752  0.97766703  1.0
  S2-  S40  1  0.84738758  0.60193006  0.18946761  1.0
  S2-  S40  1  0.82838695  0.59926001  0.38315743  1.0
  S2-  S40  1  0.82761365  0.60662814  0.58135483  1.0
  S2-  S40  1  0.82653038  0.60041188  0.77727406  1.0
  S2-  S40  1  0.84086619  0.60275248  0.98759986  1.0
  S2-  S40  1  0.82243685  0.72760280  0.18347430  1.0
  S2-  S40  1  0.82569025  0.73131037  0.58050515  1.0
  S2-  S40  1  0.83450528  0.72681053  0.77354115  1.0
  S2-  S40  1  0.83194905  0.72610536  0.98585133  1.0
  S2-  S40  1  0.83966005  0.85303038  0.18667780  1.0
  S2-  S40  1  0.83608788  0.85521010  0.38658617  1.0
  S2-  S40  1  0.83309940  0.85433630  0.57824630  1.0
  S2-  S40  1  0.84580828  0.85282903  0.78753530  1.0
  S2-  S40  1  0.84435937  0.86122041  0.98155164  1.0
  S2-  S40  1  0.84290188  0.97777715  0.17962298  1.0
  S2-  S40  1  0.81576055  0.97815523  0.37315128  1.0
  S2-  S40  1  0.82846796  0.97486879  0.57385095  1.0
  S2-  S40  1  0.82046303  0.97445333  0.76899566  1.0
  S2-  S40  1  0.83827066  0.97797689  0.98360544  1.0
  S2-  S41  1  0.81904623  0.03032580  0.06674475  1.0
  S2-  S41  1  0.03738206  0.08779991  0.42175566  1.0
  S2-  S41  1  0.03557249  0.08537722  0.81544655  1.0
  S2-  S41  1  0.89773183  0.13887855  0.64378104  1.0
  S2-  S41  1  0.93342746  0.44886652  0.44030834  1.0
  S2-  S41  1  0.99350064  0.39736235  0.94699012  1.0
  S2-  S41  1  0.22738494  0.55662865  0.28518613  1.0
  S2-  S41  1  0.90459492  0.44547380  0.78061704  1.0
  S2-  S41  1  0.83417593  0.37984927  0.67070320  1.0
  S2-  S41  1  0.05612757  0.50576194  0.25888261  1.0
  S2-  S41  1  0.01214850  0.46020911  0.22020892  1.0
  S2-  S41  1  0.02794235  0.31678760  0.27201219  1.0
  S2-  S41  1  0.03633851  0.26727669  0.83911460  1.0
  S2-  S41  1  0.13426198  0.72022801  0.17372947  1.0
  S2-  S41  1  0.05026700  0.58672938  0.22654677  1.0
  S2-  S41  1  0.12455236  0.37687350  0.45507947  1.0
  S2-  S41  1  0.99566548  0.44275711  0.50507889  1.0
  S2-  S41  1  0.09796805  0.50066592  0.90330677  1.0
  S2-  S41  1  0.03737432  0.71107357  0.22533319  1.0
  S2-  S41  1  0.21816021  0.70921716  0.72123939  1.0
  S2-  S41  1  0.23962122  0.58657009  0.91671136  1.0
  S2-  S41  1  0.03395918  0.76989580  0.42223063  1.0
  S2-  S41  1  0.04231583  0.83348192  0.83036523  1.0
  S2-  S41  1  0.22431025  0.82344386  0.03573054  1.0
  S2-  S41  1  0.97345951  0.91234245  0.06172726  1.0
  S2-  S41  1  0.02097889  0.96071634  0.41987942  1.0
  S2-  S41  1  0.23399822  0.28646314  0.07223459  1.0
  S2-  S41  1  0.11145754  0.86491916  0.54618349  1.0
  S2-  S41  1  0.22241818  0.09046936  0.61203723  1.0
  S2-  S41  1  0.12748744  0.18049049  0.57345561  1.0
  S2-  S41  1  0.03371809  0.08095658  0.01317306  1.0
  S2-  S41  1  0.43058228  0.09073535  0.57134755  1.0
  S2-  S41  1  0.24339415  0.21386041  0.82258296  1.0
  S2-  S41  1  0.21749067  0.33213142  0.01224006  1.0
  S2-  S41  1  0.19843172  0.33543646  0.41348018  1.0
  S2-  S41  1  0.22894128  0.45957737  0.01794168  1.0
  S2-  S41  1  0.03262132  0.37514945  0.16423115  1.0
  S2-  S41  1  0.39835110  0.35975517  0.74950878  1.0
  S2-  S41  1  0.22793227  0.58743366  0.01814806  1.0
  S2-  S41  1  0.40757781  0.72072734  0.16951268  1.0
  S2-  S41  1  0.14346100  0.77585760  0.52625067  1.0
  S2-  S41  1  0.40581500  0.56089665  0.99768165  1.0
  S2-  S41  1  0.23758612  0.70909411  0.22037142  1.0
  S2-  S41  1  0.04013091  0.59296222  0.77308702  1.0
  S2-  S41  1  0.12865828  0.82597268  0.64609073  1.0
  S2-  S41  1  0.24108501  0.83410486  0.02571922  1.0
  S2-  S41  1  0.23380341  0.84282390  0.42176486  1.0
  S2-  S41  1  0.23750720  0.96242325  0.01426939  1.0
  S2-  S41  1  0.24333852  0.96107672  0.21683898  1.0
  S2-  S41  1  0.51956545  0.14589525  0.81510169  1.0
  S2-  S41  1  0.41575077  0.20769836  0.00651386  1.0
  S2-  S41  1  0.60009642  0.24483286  0.15598623  1.0
  S2-  S41  1  0.33817174  0.02972984  0.82757829  1.0
  S2-  S41  1  0.30602457  0.50177247  0.20195876  1.0
  S2-  S41  1  0.41585228  0.33473474  0.20481083  1.0
  S2-  S41  1  0.28748813  0.57832693  0.38101590  1.0
  S2-  S41  1  0.51601158  0.28419613  0.07152856  1.0
  S2-  S41  1  0.25591880  0.37062443  0.21247553  1.0
  S2-  S41  1  0.18607104  0.45623712  0.98828858  1.0
  S2-  S41  1  0.43734804  0.58530638  0.01107874  1.0
  S2-  S41  1  0.29425683  0.81233397  0.39736521  1.0
  S2-  S41  1  0.68808872  0.73158796  0.38687613  1.0
  S2-  S41  1  0.25982962  0.64426562  0.96928250  1.0
  S2-  S41  1  0.65570501  0.79064445  0.42956939  1.0
  S2-  S41  1  0.44343595  0.83617926  0.82222591  1.0
  S2-  S41  1  0.43162008  0.96300224  0.00895690  1.0
  S2-  S41  1  0.62000858  0.08410140  0.01358510  1.0
  S2-  S41  1  0.62078195  0.08509338  0.41577621  1.0
  S2-  S41  1  0.52873165  0.27351448  0.42012623  1.0
  S2-  S41  1  0.61956925  0.20865729  0.61996054  1.0
  S2-  S41  1  0.72293877  0.13392546  0.03195878  1.0
  S2-  S41  1  0.63004050  0.33861586  0.02164560  1.0
  S2-  S41  1  0.39101838  0.32971373  0.97842408  1.0
  S2-  S41  1  0.61843386  0.46630978  0.41516531  1.0
  S2-  S41  1  0.59256493  0.26086349  0.58160726  1.0
  S2-  S41  1  0.48074600  0.68651940  0.89559053  1.0
  S2-  S41  1  0.64133989  0.58358810  0.21653164  1.0
  S2-  S41  1  0.80917039  0.81416777  0.59842030  1.0
  S2-  S41  1  0.75283020  0.72597614  0.63126226  1.0
  S2-  S41  1  0.73086534  0.56331289  0.65287515  1.0
  S2-  S41  1  0.62274526  0.70780497  0.61441270  1.0
  S2-  S41  1  0.68612193  0.69920860  0.44468213  1.0
  S2-  S41  1  0.62794862  0.83513048  0.42129631  1.0
  S2-  S41  1  0.56635068  0.89619159  0.77797643  1.0
  S2-  S41  1  0.62678609  0.96289626  0.21715812  1.0
  S2-  S41  1  0.37927793  0.00587870  0.37045903  1.0
  S2-  S41  1  0.69632296  0.18843406  0.60118881  1.0
  S2-  S41  1  0.83008338  0.08537175  0.02367552  1.0
  S2-  S41  1  0.83395016  0.08531277  0.41519623  1.0
  S2-  S41  1  0.89256622  0.94288896  0.00553512  1.0
  S2-  S41  1  0.83257894  0.21621118  0.02066269  1.0
  S2-  S41  1  0.81706261  0.41201409  0.76411375  1.0
  S2-  S41  1  0.68483166  0.45153412  0.24531940  1.0
  S2-  S41  1  0.79560275  0.51904933  0.74752034  1.0
  S2-  S41  1  0.84047918  0.32854768  0.81615090  1.0
  S2-  S41  1  0.93721008  0.63741958  0.94308817  1.0
  S2-  S41  1  0.86718264  0.24747568  0.09575161  1.0
  S2-  S41  1  0.09325667  0.66758245  0.28901149  1.0
  S2-  S41  1  0.89582095  0.57287965  0.57708734  1.0
  S2-  S41  1  0.73342720  0.31542427  0.86670861  1.0
  S2-  S41  1  0.00925471  0.57099726  0.76812435  1.0
  S2-  S41  1  0.97091629  0.00605168  0.46958188  1.0
  S2-  S41  1  0.62549225  0.95152104  0.53532743  1.0
  S2-  S41  1  0.82576298  0.70667006  0.61336964  1.0
  S2-  S41  1  0.85825140  0.73983624  0.96198434  1.0
  S2-  S41  1  0.03521010  0.06408964  0.87187315  1.0
  S2-  S41  1  0.72316973  0.58095639  0.60418894  1.0
  S2-  S41  1  0.82496662  0.82942362  0.61395326  1.0
  S2-  S41  1  0.93773007  0.85782158  0.67051189  1.0
  S2-  S41  1  0.73046209  0.07937830  0.02066367  1.0
