# generated using pymatgen
data_P540S1943
_symmetry_space_group_name_H-M   'P 1'
_cell_length_a   60.09350000
_cell_length_b   49.31100000
_cell_length_c   55.07910000
_cell_angle_alpha   90.00000000
_cell_angle_beta   90.00000000
_cell_angle_gamma   90.00000000
_symmetry_Int_Tables_number   1
_chemical_formula_structural   P540S1943
_chemical_formula_sum   'P1080 S3886'
_cell_volume   163214.27652026
_cell_formula_units_Z   2
loop_
 _symmetry_equiv_pos_site_id
 _symmetry_equiv_pos_as_xyz
  1  'x, y, z'
loop_
 _atom_site_type_symbol
 _atom_site_label
 _atom_site_symmetry_multiplicity
 _atom_site_fract_x
 _atom_site_fract_y
 _atom_site_fract_z
 _atom_site_occupancy
  P  P0  1  0.09728891  0.24453053  0.90666916  1.0
  P  P0  1  0.12478117  0.05880992  0.25231294  1.0
  P  P0  1  0.18352621  0.12622231  0.29487372  1.0
  P  P0  1  0.18285279  0.12675315  0.39107129  1.0
  P  P0  1  0.08225142  0.16277517  0.35674134  1.0
  P  P0  1  0.17626172  0.12191607  0.61628030  1.0
  P  P0  1  0.18705874  0.13097528  0.71223889  1.0
  P  P0  1  0.18213370  0.12589821  0.83714837  1.0
  P  P0  1  0.24234467  0.01867050  0.77772918  1.0
  P  P0  1  0.18004597  0.29052711  0.06336995  1.0
  P  P0  1  0.18394758  0.28296842  0.17207426  1.0
  P  P0  1  0.29656797  0.40707211  0.47976175  1.0
  P  P0  1  0.17850299  0.29605216  0.39512411  1.0
  P  P0  1  0.08550134  0.38579383  0.62555966  1.0
  P  P0  1  0.33769339  0.17820594  0.51275013  1.0
  P  P0  1  0.18695374  0.28948886  0.73317832  1.0
  P  P0  1  0.18059898  0.29552167  0.84366024  1.0
  P  P0  1  0.17942567  0.28736188  0.95496336  1.0
  P  P0  1  0.05620001  0.46381667  0.02702663  1.0
  P  P0  1  0.17835730  0.45413258  0.17247292  1.0
  P  P0  1  0.11573249  0.48877203  0.31135988  1.0
  P  P0  1  0.38652877  0.55992218  0.26807881  1.0
  P  P0  1  0.28642552  0.64848529  0.54679042  1.0
  P  P0  1  0.31885712  0.46719884  0.48845057  1.0
  P  P0  1  0.18399300  0.45030425  0.73436746  1.0
  P  P0  1  0.18585710  0.45996542  0.84355602  1.0
  P  P0  1  0.18184018  0.46228419  0.96110911  1.0
  P  P0  1  0.33219060  0.57250315  0.99919857  1.0
  P  P0  1  0.18616555  0.61913767  0.17681731  1.0
  P  P0  1  0.27349041  0.38678811  0.18839376  1.0
  P  P0  1  0.18668650  0.61681049  0.43690734  1.0
  P  P0  1  0.18421369  0.63009495  0.47437969  1.0
  P  P0  1  0.17258339  0.79602167  0.46041927  1.0
  P  P0  1  0.17767363  0.61931805  0.72569770  1.0
  P  P0  1  0.07579011  0.54989092  0.94186336  1.0
  P  P0  1  0.02940955  0.72191121  0.10913759  1.0
  P  P0  1  0.19336948  0.79065869  0.06424963  1.0
  P  P0  1  0.18215334  0.80111382  0.16693483  1.0
  P  P0  1  0.04571946  0.63010378  0.29091108  1.0
  P  P0  1  0.17887451  0.79417420  0.39359916  1.0
  P  P0  1  0.03689308  0.96715438  0.62102804  1.0
  P  P0  1  0.18885498  0.78804048  0.62223999  1.0
  P  P0  1  0.08126268  0.86916422  0.93493439  1.0
  P  P0  1  0.95835544  0.98965108  0.76014003  1.0
  P  P0  1  0.30050133  0.58316053  0.79155082  1.0
  P  P0  1  0.18275315  0.95662460  0.06172852  1.0
  P  P0  1  0.27555804  0.73310695  0.26958701  1.0
  P  P0  1  0.16245101  0.84648032  0.39938316  1.0
  P  P0  1  0.18425108  0.96191876  0.40374575  1.0
  P  P0  1  0.18556078  0.96250771  0.50136584  1.0
  P  P0  1  0.29445023  0.84599163  0.56867873  1.0
  P  P0  1  0.17566987  0.95686457  0.73641411  1.0
  P  P0  1  0.19659349  0.08101316  0.75376080  1.0
  P  P0  1  0.17669204  0.95820906  0.95698683  1.0
  P  P0  1  0.30032672  0.35390002  0.16607806  1.0
  P  P0  1  0.38032000  0.12645081  0.17892450  1.0
  P  P0  1  0.34137498  0.36271506  0.45699229  1.0
  P  P0  1  0.38660053  0.12555695  0.40200362  1.0
  P  P0  1  0.38654560  0.13491742  0.50712420  1.0
  P  P0  1  0.37981648  0.12772047  0.62660750  1.0
  P  P0  1  0.58692024  0.93706605  0.62225761  1.0
  P  P0  1  0.38153549  0.12842724  0.84002051  1.0
  P  P0  1  0.64615495  0.09444790  0.56548941  1.0
  P  P0  1  0.22252674  0.25866999  0.11002554  1.0
  P  P0  1  0.23128833  0.18808204  0.20771617  1.0
  P  P0  1  0.47484580  0.52611423  0.43626674  1.0
  P  P0  1  0.37379485  0.29853430  0.39822135  1.0
  P  P0  1  0.38358826  0.29504701  0.50370597  1.0
  P  P0  1  0.38052566  0.30081717  0.61750510  1.0
  P  P0  1  0.38121279  0.28759361  0.72724256  1.0
  P  P0  1  0.31157353  0.16076831  0.62558726  1.0
  P  P0  1  0.38366530  0.30198966  0.94731675  1.0
  P  P0  1  0.43363294  0.55985118  0.09215544  1.0
  P  P0  1  0.38316545  0.44955658  0.17626448  1.0
  P  P0  1  0.39028512  0.45994239  0.28772963  1.0
  P  P0  1  0.29098653  0.69254368  0.28807020  1.0
  P  P0  1  0.38138218  0.45723973  0.50642224  1.0
  P  P0  1  0.15912064  0.63191122  0.40067813  1.0
  P  P0  1  0.51599873  0.69355123  0.65033253  1.0
  P  P0  1  0.42613793  0.31191129  0.70725424  1.0
  P  P0  1  0.30256214  0.62803919  0.94515354  1.0
  P  P0  1  0.38305418  0.62654034  0.06088599  1.0
  P  P0  1  0.22003352  0.66265234  0.06808240  1.0
  P  P0  1  0.38568178  0.62399373  0.29720490  1.0
  P  P0  1  0.38149209  0.62714039  0.39386403  1.0
  P  P0  1  0.18579378  0.69291731  0.41884967  1.0
  P  P0  1  0.37818460  0.61703369  0.62244728  1.0
  P  P0  1  0.48898264  0.66957556  0.72661993  1.0
  P  P0  1  0.38164951  0.61963685  0.84256692  1.0
  P  P0  1  0.38267233  0.62770611  0.94518680  1.0
  P  P0  1  0.34825756  0.60249175  0.83410258  1.0
  P  P0  1  0.29908104  0.68646683  0.97120934  1.0
  P  P0  1  0.37958549  0.79028364  0.29531599  1.0
  P  P0  1  0.18992420  0.54919558  0.34747725  1.0
  P  P0  1  0.38240013  0.79900988  0.50713377  1.0
  P  P0  1  0.32188161  0.71879150  0.75041888  1.0
  P  P0  1  0.39064708  0.79064916  0.73696777  1.0
  P  P0  1  0.37947678  0.79305098  0.83452025  1.0
  P  P0  1  0.17553625  0.85238345  0.11456448  1.0
  P  P0  1  0.39122046  0.95617539  0.06040059  1.0
  P  P0  1  0.42138072  0.80860868  0.03810753  1.0
  P  P0  1  0.37980069  0.96824748  0.28521894  1.0
  P  P0  1  0.38546868  0.95865554  0.39056303  1.0
  P  P0  1  0.37332995  0.96129934  0.51833735  1.0
  P  P0  1  0.53847436  0.07735314  0.48721350  1.0
  P  P0  1  0.38760658  0.96443241  0.72748579  1.0
  P  P0  1  0.26137903  0.14231375  0.02807704  1.0
  P  P0  1  0.37968237  0.95086768  0.95569306  1.0
  P  P0  1  0.57369513  0.12708319  0.05844391  1.0
  P  P0  1  0.52968692  0.97159023  0.98702445  1.0
  P  P0  1  0.58981261  0.11718348  0.29432286  1.0
  P  P0  1  0.34248000  0.97433999  0.47360610  1.0
  P  P0  1  0.55782083  0.97972339  0.59787310  1.0
  P  P0  1  0.57279630  0.13626903  0.61854978  1.0
  P  P0  1  0.73376214  0.07904661  0.49820055  1.0
  P  P0  1  0.50761410  0.14948359  0.98657266  1.0
  P  P0  1  0.58421231  0.13619372  0.95971356  1.0
  P  P0  1  0.56707337  0.30028730  0.07118797  1.0
  P  P0  1  0.57886386  0.28903495  0.17796477  1.0
  P  P0  1  0.57747682  0.29018994  0.29228025  1.0
  P  P0  1  0.58512461  0.28761006  0.40351513  1.0
  P  P0  1  0.60964678  0.46521308  0.66452190  1.0
  P  P0  1  0.69578606  0.56566397  0.71675167  1.0
  P  P0  1  0.63907951  0.37642506  0.71837492  1.0
  P  P0  1  0.58859134  0.28769827  0.84038585  1.0
  P  P0  1  0.67601788  0.13766685  0.90453023  1.0
  P  P0  1  0.58050177  0.45685116  0.06874051  1.0
  P  P0  1  0.36417493  0.34676588  0.24267335  1.0
  P  P0  1  0.45784654  0.65978848  0.09130689  1.0
  P  P0  1  0.60634156  0.59114344  0.24776379  1.0
  P  P0  1  0.42728029  0.31255347  0.63983660  1.0
  P  P0  1  0.59501157  0.61424588  0.82800003  1.0
  P  P0  1  0.74232467  0.34392780  0.49305705  1.0
  P  P0  1  0.59114178  0.45676432  0.84726593  1.0
  P  P0  1  0.39182397  0.55540584  0.99528494  1.0
  P  P0  1  0.58199899  0.62479250  0.06615589  1.0
  P  P0  1  0.59552861  0.63819439  0.18271462  1.0
  P  P0  1  0.59678591  0.61925335  0.29040574  1.0
  P  P0  1  0.68618677  0.50939053  0.41534148  1.0
  P  P0  1  0.58008969  0.63432957  0.50690399  1.0
  P  P0  1  0.58028406  0.63432694  0.61981016  1.0
  P  P0  1  0.58834534  0.62758173  0.73366219  1.0
  P  P0  1  0.45844780  0.82119495  0.97043241  1.0
  P  P0  1  0.63480375  0.73179269  0.72423056  1.0
  P  P0  1  0.58521588  0.64211034  0.85897724  1.0
  P  P0  1  0.57286612  0.78423570  0.17414809  1.0
  P  P0  1  0.72760338  0.13637684  0.63361169  1.0
  P  P0  1  0.57989208  0.80041017  0.39765589  1.0
  P  P0  1  0.58720608  0.79266408  0.51676672  1.0
  P  P0  1  0.49571508  0.55803730  0.47718815  1.0
  P  P0  1  0.71545548  0.71778091  0.65006766  1.0
  P  P0  1  0.58497802  0.79651049  0.83826690  1.0
  P  P0  1  0.74045801  0.67997932  0.82547708  1.0
  P  P0  1  0.58159276  0.95341698  0.06722745  1.0
  P  P0  1  0.67325868  0.72474084  0.38409451  1.0
  P  P0  1  0.57587958  0.95265445  0.28903803  1.0
  P  P0  1  0.38661242  0.13185720  0.47484914  1.0
  P  P0  1  0.57889562  0.96832705  0.50295557  1.0
  P  P0  1  0.58989306  0.95632122  0.61660585  1.0
  P  P0  1  0.59924574  0.16451907  0.62841405  1.0
  P  P0  1  0.41673508  0.07285146  0.88373115  1.0
  P  P0  1  0.64185646  0.78077163  0.95575445  1.0
  P  P0  1  0.79392687  0.08199959  0.20338891  1.0
  P  P0  1  0.78506317  0.11306029  0.17314019  1.0
  P  P0  1  0.98432257  0.92840860  0.21940364  1.0
  P  P0  1  0.78097583  0.11945688  0.39612319  1.0
  P  P0  1  0.62591390  0.22578223  0.32794584  1.0
  P  P0  1  0.75386375  0.31886007  0.44035651  1.0
  P  P0  1  0.92006349  0.05299310  0.60101515  1.0
  P  P0  1  0.92744600  0.35881521  0.80807222  1.0
  P  P0  1  0.91718501  0.12136497  0.96602591  1.0
  P  P0  1  0.78650282  0.29656919  0.06485091  1.0
  P  P0  1  0.70943357  0.18033545  0.31199637  1.0
  P  P0  1  0.78787626  0.28151098  0.29071241  1.0
  P  P0  1  0.80022066  0.32624929  0.59157369  1.0
  P  P0  1  0.76319628  0.25626541  0.53506533  1.0
  P  P0  1  0.78290013  0.30574912  0.62446832  1.0
  P  P0  1  0.78278660  0.28746858  0.73067407  1.0
  P  P0  1  0.78328799  0.30058210  0.84907015  1.0
  P  P0  1  0.78479393  0.30243013  0.94251844  1.0
  P  P0  1  0.78485034  0.46597251  0.06759285  1.0
  P  P0  1  0.77588633  0.46678648  0.17986907  1.0
  P  P0  1  0.78425239  0.45887089  0.29769245  1.0
  P  P0  1  0.76885906  0.61678882  0.42268141  1.0
  P  P0  1  0.78632175  0.46433341  0.50936338  1.0
  P  P0  1  0.68573956  0.70146490  0.40640897  1.0
  P  P0  1  0.53182946  0.62593629  0.72445517  1.0
  P  P0  1  0.84064449  0.54859171  0.83870393  1.0
  P  P0  1  0.70371750  0.58039770  0.74399200  1.0
  P  P0  1  0.71184615  0.82113687  0.19642526  1.0
  P  P0  1  0.64550172  0.76891896  0.19232345  1.0
  P  P0  1  0.78402469  0.61779540  0.28411710  1.0
  P  P0  1  0.78417251  0.62180699  0.39394569  1.0
  P  P0  1  0.73976312  0.77551797  0.31522068  1.0
  P  P0  1  0.79782353  0.52706932  0.61436330  1.0
  P  P0  1  0.78142231  0.62314207  0.73678136  1.0
  P  P0  1  0.78682832  0.62530327  0.84087678  1.0
  P  P0  1  0.79494498  0.59139274  0.86851794  1.0
  P  P0  1  0.78009613  0.79105314  0.06214002  1.0
  P  P0  1  0.78515568  0.79664571  0.17365402  1.0
  P  P0  1  0.86966205  0.69896821  0.28081053  1.0
  P  P0  1  0.71340040  0.65844279  0.47808995  1.0
  P  P0  1  0.90299257  0.58176742  0.60827556  1.0
  P  P0  1  0.78095395  0.78853082  0.62031157  1.0
  P  P0  1  0.78758745  0.79116232  0.73449868  1.0
  P  P0  1  0.72468791  0.84806569  0.87526976  1.0
  P  P0  1  0.71550824  0.65640669  0.94340896  1.0
  P  P0  1  0.77565978  0.95821234  0.05758826  1.0
  P  P0  1  0.98856881  0.84599028  0.38238522  1.0
  P  P0  1  0.78089138  0.95821149  0.27882870  1.0
  P  P0  1  0.77702812  0.94812026  0.40381324  1.0
  P  P0  1  0.56003548  0.16968442  0.35991862  1.0
  P  P0  1  0.79026833  0.95791949  0.62201772  1.0
  P  P0  1  0.70242365  0.07483469  0.87209158  1.0
  P  P0  1  0.68622504  0.10064979  0.88217910  1.0
  P  P0  1  0.61393733  0.99402176  0.72816541  1.0
  P  P0  1  0.95821410  0.07945634  0.95295607  1.0
  P  P0  1  0.08715453  0.94046814  0.34508484  1.0
  P  P0  1  0.98428277  0.12195785  0.28436394  1.0
  P  P0  1  0.12481532  0.04979920  0.29899708  1.0
  P  P0  1  0.99288894  0.12763536  0.50877227  1.0
  P  P0  1  0.84434810  0.04906963  0.69373415  1.0
  P  P0  1  0.12569078  0.36369158  0.95231855  1.0
  P  P0  1  0.91235044  0.09075960  0.79260582  1.0
  P  P0  1  0.74362095  0.16108148  0.86622978  1.0
  P  P0  1  0.76835192  0.25263224  0.03072944  1.0
  P  P0  1  0.98230183  0.28812220  0.18342265  1.0
  P  P0  1  0.16791095  0.52807510  0.33218904  1.0
  P  P0  1  0.98372100  0.28914159  0.39371629  1.0
  P  P0  1  0.76263483  0.44555139  0.47341738  1.0
  P  P0  1  0.82591212  0.39733108  0.41821077  1.0
  P  P0  1  0.98508763  0.29315538  0.74378528  1.0
  P  P0  1  0.82999938  0.29535268  0.88279570  1.0
  P  P0  1  0.99635775  0.24630229  0.96094480  1.0
  P  P0  1  0.98094210  0.46135834  0.07172165  1.0
  P  P0  1  0.86463582  0.50060837  0.15149501  1.0
  P  P0  1  0.76105869  0.41092155  0.20917757  1.0
  P  P0  1  0.98748672  0.44568523  0.39903624  1.0
  P  P0  1  0.98699494  0.45055850  0.50560252  1.0
  P  P0  1  0.98539738  0.46349570  0.62890373  1.0
  P  P0  1  0.02573521  0.43751707  0.69160781  1.0
  P  P0  1  0.04438126  0.42177388  0.70122197  1.0
  P  P0  1  0.77706928  0.65054702  0.76855408  1.0
  P  P0  1  0.90868918  0.43677931  0.89994325  1.0
  P  P0  1  0.98833079  0.62751555  0.16767161  1.0
  P  P0  1  0.98375283  0.61180022  0.29072181  1.0
  P  P0  1  0.74314038  0.73541762  0.32024070  1.0
  P  P0  1  0.75423067  0.69625772  0.58198826  1.0
  P  P0  1  0.97934169  0.63163453  0.61407532  1.0
  P  P0  1  0.98308818  0.61795563  0.73196303  1.0
  P  P0  1  0.99263670  0.62938808  0.84221117  1.0
  P  P0  1  0.64840088  0.38776054  0.77327256  1.0
  P  P0  1  0.87778004  0.85924019  0.02904753  1.0
  P  P0  1  0.98792458  0.79291325  0.17421903  1.0
  P  P0  1  0.98018703  0.78550889  0.29280627  1.0
  P  P0  1  0.98040327  0.79484423  0.39508086  1.0
  P  P0  1  0.02281294  0.56664577  0.52209297  1.0
  P  P0  1  0.98054068  0.78406985  0.61748077  1.0
  P  P0  1  0.88242073  0.75840524  0.70047417  1.0
  P  P0  1  0.74979439  0.81044938  0.96594949  1.0
  P  P0  1  0.03588205  0.67269774  0.19168486  1.0
  P  P0  1  0.81248828  0.84441263  0.95118889  1.0
  P  P0  1  0.07647743  0.86982460  0.97689653  1.0
  P  P0  1  0.97466083  0.95672990  0.28284249  1.0
  P  P0  1  0.13604736  0.07066363  0.37410509  1.0
  P  P0  1  0.98808732  0.96300946  0.50925331  1.0
  P  P0  1  0.98483396  0.97025770  0.62454712  1.0
  P  P0  1  0.92373184  0.78978808  0.70324454  1.0
  P  P0  1  0.97773362  0.95723385  0.83436993  1.0
  P  P0  1  0.97875221  0.94951928  0.92597140  1.0
  P  P1  1  0.05506279  0.05045670  0.32129167  1.0
  P  P1  1  0.08988237  0.12557975  0.22164018  1.0
  P  P1  1  0.09002130  0.12946985  0.32459992  1.0
  P  P1  1  0.08055484  0.12937182  0.43451819  1.0
  P  P1  1  0.07959649  0.03600315  0.74933680  1.0
  P  P1  1  0.08801482  0.13266147  0.65790130  1.0
  P  P1  1  0.22638083  0.94677088  0.95843349  1.0
  P  P1  1  0.08071447  0.11614245  0.89129192  1.0
  P  P1  1  0.08622625  0.13014844  0.98624497  1.0
  P  P1  1  0.18239827  0.28527179  0.92581492  1.0
  P  P1  1  0.08932801  0.28294114  0.20731321  1.0
  P  P1  1  0.08576367  0.28857590  0.32871616  1.0
  P  P1  1  0.14985516  0.16992665  0.63431338  1.0
  P  P1  1  0.03927722  0.52315950  0.53467999  1.0
  P  P1  1  0.08417682  0.26880705  0.66035317  1.0
  P  P1  1  0.07526405  0.28030378  0.75789332  1.0
  P  P1  1  0.07215524  0.29336392  0.87585078  1.0
  P  P1  1  0.07495629  0.29180710  0.98492074  1.0
  P  P1  1  0.23757494  0.35707118  0.11659015  1.0
  P  P1  1  0.08941566  0.46670220  0.36032289  1.0
  P  P1  1  0.09119378  0.45455124  0.31362807  1.0
  P  P1  1  0.07478020  0.45427125  0.43829908  1.0
  P  P1  1  0.07973736  0.45302867  0.39332385  1.0
  P  P1  1  0.33843863  0.48356641  0.75992617  1.0
  P  P1  1  0.93463907  0.57498772  0.62412949  1.0
  P  P1  1  0.27758094  0.68259702  0.88443698  1.0
  P  P1  1  0.08711407  0.46347374  0.99015170  1.0
  P  P1  1  0.07556990  0.62507721  0.10824985  1.0
  P  P1  1  0.08663246  0.63540488  0.21049560  1.0
  P  P1  1  0.08643044  0.61887791  0.32537575  1.0
  P  P1  1  0.08805846  0.63051454  0.43595030  1.0
  P  P1  1  0.08120182  0.61894761  0.54527028  1.0
  P  P1  1  0.07599917  0.62291206  0.64777313  1.0
  P  P1  1  0.93666710  0.39803863  0.80696377  1.0
  P  P1  1  0.14912021  0.74538537  0.65010499  1.0
  P  P1  1  0.08483806  0.62714952  0.98366341  1.0
  P  P1  1  0.07034359  0.78548008  0.10121496  1.0
  P  P1  1  0.08733345  0.79309247  0.21607726  1.0
  P  P1  1  0.07806257  0.79123636  0.32463445  1.0
  P  P1  1  0.95940017  0.67258294  0.50920537  1.0
  P  P1  1  0.32022166  0.94241484  0.47572895  1.0
  P  P1  1  0.87797327  0.57702294  0.82086255  1.0
  P  P1  1  0.09782644  0.75235174  0.98822298  1.0
  P  P1  1  0.08406639  0.78211394  0.88815820  1.0
  P  P1  1  0.08391193  0.78939390  0.99829447  1.0
  P  P1  1  0.17830624  0.00412157  0.92171212  1.0
  P  P1  1  0.08755997  0.97699551  0.21414757  1.0
  P  P1  1  0.27053039  0.95656073  0.19095540  1.0
  P  P1  1  0.94122293  0.03314069  0.58545397  1.0
  P  P1  1  0.08313706  0.95496479  0.54535773  1.0
  P  P1  1  0.08048385  0.96471164  0.65711968  1.0
  P  P1  1  0.09057192  0.95641024  0.76735194  1.0
  P  P1  1  0.16867429  0.88049153  0.71937234  1.0
  P  P1  1  0.07190752  0.03836729  0.77814808  1.0
  P  P1  1  0.28456667  0.12195506  0.10717290  1.0
  P  P1  1  0.43412272  0.90038432  0.37809906  1.0
  P  P1  1  0.28434976  0.20605679  0.17622226  1.0
  P  P1  1  0.27031985  0.12773230  0.43713005  1.0
  P  P1  1  0.28131878  0.11987879  0.54453418  1.0
  P  P1  1  0.28981896  0.11940343  0.64813159  1.0
  P  P1  1  0.29860403  0.94876802  0.76210941  1.0
  P  P1  1  0.29354710  0.12895590  0.87448877  1.0
  P  P1  1  0.27817135  0.13032845  0.99819748  1.0
  P  P1  1  0.27933501  0.30033279  0.10080521  1.0
  P  P1  1  0.28610586  0.29863550  0.20509590  1.0
  P  P1  1  0.28479368  0.30035829  0.32122400  1.0
  P  P1  1  0.48705413  0.30287304  0.55505498  1.0
  P  P1  1  0.47499885  0.13667765  0.34714156  1.0
  P  P1  1  0.28455923  0.30135577  0.65371848  1.0
  P  P1  1  0.12624593  0.16506052  0.89688409  1.0
  P  P1  1  0.28803086  0.29109372  0.88004902  1.0
  P  P1  1  0.28824666  0.21275405  0.14449766  1.0
  P  P1  1  0.27696142  0.46396036  0.10045447  1.0
  P  P1  1  0.12926448  0.37983109  0.31853353  1.0
  P  P1  1  0.28166795  0.47146208  0.33200594  1.0
  P  P1  1  0.15818493  0.51070374  0.64877068  1.0
  P  P1  1  0.28025277  0.46570984  0.55246225  1.0
  P  P1  1  0.43660138  0.63713781  0.61297143  1.0
  P  P1  1  0.13602728  0.38789623  0.67709561  1.0
  P  P1  1  0.28379744  0.44600576  0.87567518  1.0
  P  P1  1  0.17123546  0.49478484  0.91604980  1.0
  P  P1  1  0.28276578  0.62456543  0.10743413  1.0
  P  P1  1  0.13760515  0.39114337  0.97908762  1.0
  P  P1  1  0.28623973  0.62304483  0.32405453  1.0
  P  P1  1  0.28073196  0.62356632  0.42991643  1.0
  P  P1  1  0.28418369  0.62837448  0.53925239  1.0
  P  P1  1  0.32623768  0.39346615  0.48046469  1.0
  P  P1  1  0.28142763  0.63483210  0.76317658  1.0
  P  P1  1  0.45961179  0.77195888  0.83771399  1.0
  P  P1  1  0.28009386  0.62663540  0.98534478  1.0
  P  P1  1  0.27667274  0.78756320  0.09849423  1.0
  P  P1  1  0.29312771  0.80111150  0.20407323  1.0
  P  P1  1  0.10232702  0.82992346  0.55075214  1.0
  P  P1  1  0.28586527  0.79146660  0.43290478  1.0
  P  P1  1  0.20028187  0.86571619  0.70769866  1.0
  P  P1  1  0.27411461  0.79424406  0.65454299  1.0
  P  P1  1  0.28460815  0.79319283  0.77149823  1.0
  P  P1  1  0.28742031  0.80012194  0.89046381  1.0
  P  P1  1  0.28261885  0.78836710  0.98426775  1.0
  P  P1  1  0.11374025  0.15854221  0.94708907  1.0
  P  P1  1  0.28825442  0.95771673  0.20632659  1.0
  P  P1  1  0.27830516  0.95259480  0.31923709  1.0
  P  P1  1  0.28538507  0.96358872  0.44464365  1.0
  P  P1  1  0.16614985  0.09646059  0.67734129  1.0
  P  P1  1  0.28264046  0.94932694  0.65149338  1.0
  P  P1  1  0.28518409  0.94922545  0.77312785  1.0
  P  P1  1  0.17431298  0.12253607  0.68833215  1.0
  P  P1  1  0.28984592  0.94674109  0.99059383  1.0
  P  P1  1  0.29217509  0.29285363  0.11549653  1.0
  P  P1  1  0.59810696  0.30211906  0.04923569  1.0
  P  P1  1  0.48372268  0.12437802  0.31899220  1.0
  P  P1  1  0.48853311  0.12626191  0.42535588  1.0
  P  P1  1  0.43974409  0.27258938  0.67925774  1.0
  P  P1  1  0.48258091  0.12017584  0.66743174  1.0
  P  P1  1  0.67249093  0.15513001  0.85010237  1.0
  P  P1  1  0.67500786  0.04400147  0.68931359  1.0
  P  P1  1  0.36242196  0.08350465  0.23276923  1.0
  P  P1  1  0.58775366  0.26410034  0.28132163  1.0
  P  P1  1  0.46922260  0.29704027  0.21287712  1.0
  P  P1  1  0.49157748  0.26147528  0.53352964  1.0
  P  P1  1  0.47993939  0.29394926  0.44161356  1.0
  P  P1  1  0.32544310  0.14195084  0.64649449  1.0
  P  P1  1  0.68414606  0.51144931  0.46426652  1.0
  P  P1  1  0.48079518  0.29791370  0.76729342  1.0
  P  P1  1  0.48767898  0.28879768  0.88376752  1.0
  P  P1  1  0.48357387  0.28588243  0.99047071  1.0
  P  P1  1  0.47160403  0.45380672  0.09346170  1.0
  P  P1  1  0.37409780  0.26267626  0.46744228  1.0
  P  P1  1  0.34868624  0.45517663  0.46322147  1.0
  P  P1  1  0.47932244  0.44975787  0.43581956  1.0
  P  P1  1  0.49862874  0.44568136  0.56468373  1.0
  P  P1  1  0.58172671  0.28615728  0.81628396  1.0
  P  P1  1  0.42155869  0.54387722  0.80718985  1.0
  P  P1  1  0.47982631  0.45285984  0.87671406  1.0
  P  P1  1  0.35519073  0.47785455  0.78245311  1.0
  P  P1  1  0.48885523  0.62091056  0.10945605  1.0
  P  P1  1  0.62411673  0.50891157  0.07958605  1.0
  P  P1  1  0.48929625  0.63521491  0.31151025  1.0
  P  P1  1  0.72091515  0.47546666  0.47164655  1.0
  P  P1  1  0.66863756  0.70445681  0.50035782  1.0
  P  P1  1  0.53290023  0.73572427  0.51346601  1.0
  P  P1  1  0.48328551  0.62844725  0.76180071  1.0
  P  P1  1  0.42938465  0.77559774  0.02257476  1.0
  P  P1  1  0.47662231  0.62606561  0.98704087  1.0
  P  P1  1  0.71371306  0.79662390  0.98630928  1.0
  P  P1  1  0.67622147  0.75831769  0.29485419  1.0
  P  P1  1  0.48133349  0.79378091  0.33536918  1.0
  P  P1  1  0.49819004  0.81578610  0.40362586  1.0
  P  P1  1  0.49782720  0.65020595  0.69506392  1.0
  P  P1  1  0.72558319  0.71193086  0.58003851  1.0
  P  P1  1  0.52974314  0.94275684  0.94828813  1.0
  P  P1  1  0.47902785  0.78948629  0.88604152  1.0
  P  P1  1  0.56587521  0.64256151  0.10386089  1.0
  P  P1  1  0.48166705  0.95709077  0.10597597  1.0
  P  P1  1  0.62166835  0.81526699  0.19521655  1.0
  P  P1  1  0.45789267  0.99875114  0.20228676  1.0
  P  P1  1  0.48197099  0.95826520  0.42864749  1.0
  P  P1  1  0.48059963  0.96743575  0.55215214  1.0
  P  P1  1  0.47964483  0.95823756  0.66290199  1.0
  P  P1  1  0.48475358  0.96319986  0.77163146  1.0
  P  P1  1  0.49944185  0.14616603  0.78081654  1.0
  P  P1  1  0.31585137  0.91814698  0.78327753  1.0
  P  P1  1  0.67981595  0.13018519  0.09161876  1.0
  P  P1  1  0.67740039  0.12583430  0.22082321  1.0
  P  P1  1  0.68753210  0.13413570  0.32540951  1.0
  P  P1  1  0.68149573  0.13013054  0.43049029  1.0
  P  P1  1  0.76993660  0.04107603  0.34737325  1.0
  P  P1  1  0.67764160  0.20530812  0.80730491  1.0
  P  P1  1  0.82851893  0.25224413  0.80442566  1.0
  P  P1  1  0.68480641  0.12237811  0.86625277  1.0
  P  P1  1  0.67568938  0.11822713  0.98528451  1.0
  P  P1  1  0.57010433  0.28804609  0.34090838  1.0
  P  P1  1  0.69256772  0.29881654  0.21753395  1.0
  P  P1  1  0.50493088  0.33086614  0.12721334  1.0
  P  P1  1  0.68046709  0.30204800  0.43566778  1.0
  P  P1  1  0.67640781  0.28559879  0.55893126  1.0
  P  P1  1  0.68044265  0.27902124  0.65434665  1.0
  P  P1  1  0.50209544  0.41456807  0.97514396  1.0
  P  P1  1  0.71913853  0.16097222  0.67689009  1.0
  P  P1  1  0.68219337  0.20979618  0.84350046  1.0
  P  P1  1  0.68020465  0.46522451  0.10671134  1.0
  P  P1  1  0.58911847  0.61431053  0.11382183  1.0
  P  P1  1  0.52139362  0.57784081  0.23334755  1.0
  P  P1  1  0.68916947  0.45842705  0.43117803  1.0
  P  P1  1  0.68354264  0.45617105  0.54979088  1.0
  P  P1  1  0.66699990  0.55422878  0.53402549  1.0
  P  P1  1  0.68507748  0.45051425  0.77396065  1.0
  P  P1  1  0.68734878  0.46045023  0.88152229  1.0
  P  P1  1  0.68142346  0.45466339  0.99086286  1.0
  P  P1  1  0.45317629  0.58328846  0.22559374  1.0
  P  P1  1  0.40233757  0.55973225  0.04214291  1.0
  P  P1  1  0.67281883  0.57980754  0.48065588  1.0
  P  P1  1  0.68343585  0.62794119  0.43787281  1.0
  P  P1  1  0.48877331  0.84601725  0.40162026  1.0
  P  P1  1  0.67960279  0.61959829  0.65930266  1.0
  P  P1  1  0.68363449  0.62334289  0.77828406  1.0
  P  P1  1  0.62079231  0.50111166  0.72546627  1.0
  P  P1  1  0.68847672  0.62674704  0.98900194  1.0
  P  P1  1  0.68374037  0.80285427  0.09728899  1.0
  P  P1  1  0.68269413  0.79574249  0.21454952  1.0
  P  P1  1  0.68130259  0.78907297  0.32272441  1.0
  P  P1  1  0.53288314  0.97494391  0.67887385  1.0
  P  P1  1  0.48505559  0.68851314  0.60957155  1.0
  P  P1  1  0.68208777  0.79689106  0.66225393  1.0
  P  P1  1  0.83368510  0.86632402  0.95366006  1.0
  P  P1  1  0.68946736  0.78783898  0.87817047  1.0
  P  P1  1  0.68163134  0.78846274  0.99127046  1.0
  P  P1  1  0.73314732  0.80852211  0.28647365  1.0
  P  P1  1  0.67906781  0.95312954  0.21365029  1.0
  P  P1  1  0.67464808  0.95291507  0.32177871  1.0
  P  P1  1  0.83978878  0.07097434  0.41565749  1.0
  P  P1  1  0.54372662  0.72253146  0.63021632  1.0
  P  P1  1  0.67671878  0.97295390  0.66365975  1.0
  P  P1  1  0.82015931  0.02518498  0.69960776  1.0
  P  P1  1  0.68971278  0.79692357  0.71713527  1.0
  P  P1  1  0.67919376  0.95285086  0.98963858  1.0
  P  P1  1  0.88289657  0.12370255  0.11040486  1.0
  P  P1  1  0.88658922  0.12023616  0.21494015  1.0
  P  P1  1  0.87904215  0.12259613  0.32688783  1.0
  P  P1  1  0.89981042  0.18242915  0.56974088  1.0
  P  P1  1  0.88297784  0.12764417  0.54302342  1.0
  P  P1  1  0.88612316  0.12872474  0.65385124  1.0
  P  P1  1  0.99620175  0.02239093  0.67208638  1.0
  P  P1  1  0.72094106  0.08067140  0.68618010  1.0
  P  P1  1  0.88693130  0.12287989  0.99342229  1.0
  P  P1  1  0.87316649  0.28007461  0.09271639  1.0
  P  P1  1  0.92622604  0.34346349  0.20528737  1.0
  P  P1  1  0.04133541  0.26118805  0.29100100  1.0
  P  P1  1  0.73665639  0.45771319  0.42167397  1.0
  P  P1  1  0.88238734  0.28629477  0.55572930  1.0
  P  P1  1  0.71081508  0.09281847  0.45536069  1.0
  P  P1  1  0.89062075  0.29721071  0.76783794  1.0
  P  P1  1  0.68133796  0.46619065  0.04267596  1.0
  P  P1  1  0.88507188  0.29626928  0.98699263  1.0
  P  P1  1  0.88653757  0.45280546  0.09872340  1.0
  P  P1  1  0.06192898  0.66411060  0.11765835  1.0
  P  P1  1  0.01893305  0.60397668  0.31539751  1.0
  P  P1  1  0.08115364  0.34260976  0.29525424  1.0
  P  P1  1  0.85877161  0.57615740  0.58308724  1.0
  P  P1  1  0.90727594  0.69447683  0.69325890  1.0
  P  P1  1  0.71960916  0.67539756  0.73448777  1.0
  P  P1  1  0.88337029  0.46424004  0.87687000  1.0
  P  P1  1  0.01859469  0.46307004  0.02175087  1.0
  P  P1  1  0.88039475  0.62700176  0.11277602  1.0
  P  P1  1  0.88138063  0.62225758  0.21958504  1.0
  P  P1  1  0.88288013  0.63026873  0.33230967  1.0
  P  P1  1  0.87301972  0.62477137  0.43413721  1.0
  P  P1  1  0.74255127  0.68842988  0.62109524  1.0
  P  P1  1  0.88306103  0.62175101  0.65324375  1.0
  P  P1  1  0.71213888  0.50377876  0.57620785  1.0
  P  P1  1  0.86067828  0.67819012  0.90655159  1.0
  P  P1  1  0.87928557  0.62059187  0.99918965  1.0
  P  P1  1  0.88601375  0.78704649  0.10270413  1.0
  P  P1  1  0.87076496  0.78356541  0.20908006  1.0
  P  P1  1  0.98778002  0.75822256  0.15823224  1.0
  P  P1  1  0.69225075  0.71810174  0.48752126  1.0
  P  P1  1  0.88079387  0.80415367  0.54986284  1.0
  P  P1  1  0.88864461  0.79135761  0.65465038  1.0
  P  P1  1  0.05792024  0.84404663  0.87716932  1.0
  P  P1  1  0.71785259  0.60064939  0.75145285  1.0
  P  P1  1  0.87972474  0.78957751  0.99337717  1.0
  P  P1  1  0.78133470  0.03806252  0.30098533  1.0
  P  P1  1  0.81103454  0.77905294  0.06385235  1.0
  P  P1  1  0.79959587  0.14958596  0.17731595  1.0
  P  P1  1  0.88583848  0.95975732  0.43377486  1.0
  P  P1  1  0.88299236  0.95150634  0.55101650  1.0
  P  P1  1  0.89061722  0.95104735  0.64900937  1.0
  P  P1  1  0.88053269  0.95090211  0.76177103  1.0
  P  P1  1  0.87554081  0.95715549  0.87759243  1.0
  P  P1  1  0.66778784  0.91609474  0.85494003  1.0
  P  P2  1  0.98174833  0.09707665  0.97408544  1.0
  P  P2  1  0.10914185  0.02849586  0.11139870  1.0
  P  P2  1  0.11537166  0.03991982  0.23202366  1.0
  P  P2  1  0.11464088  0.03651665  0.35019552  1.0
  P  P2  1  0.12329533  0.04766656  0.45518247  1.0
  P  P2  1  0.25589472  0.11259865  0.68354158  1.0
  P  P2  1  0.95589586  0.18073335  0.60406031  1.0
  P  P2  1  0.11948720  0.04266242  0.78518361  1.0
  P  P2  1  0.11529434  0.03053260  0.89934098  1.0
  P  P2  1  0.11588475  0.21378443  0.00985193  1.0
  P  P2  1  0.16644213  0.28475794  0.93577970  1.0
  P  P2  1  0.12210839  0.20716287  0.23384784  1.0
  P  P2  1  0.33174654  0.32391391  0.27348288  1.0
  P  P2  1  0.09812380  0.10584959  0.38636161  1.0
  P  P2  1  0.01909421  0.05369457  0.40612502  1.0
  P  P2  1  0.17355666  0.23017075  0.70671338  1.0
  P  P2  1  0.27296695  0.08884891  0.55267195  1.0
  P  P2  1  0.11727510  0.20309822  0.89788337  1.0
  P  P2  1  0.11766749  0.37639283  0.01134073  1.0
  P  P2  1  0.10945689  0.36718153  0.11380935  1.0
  P  P2  1  0.24180609  0.17854289  0.03718092  1.0
  P  P2  1  0.12718008  0.36289944  0.34255460  1.0
  P  P2  1  0.01531524  0.43855094  0.38236733  1.0
  P  P2  1  0.06749494  0.41735815  0.61715459  1.0
  P  P2  1  0.05514497  0.40458235  0.46155980  1.0
  P  P2  1  0.36570912  0.64387245  0.64720192  1.0
  P  P2  1  0.11641058  0.37186790  0.89374929  1.0
  P  P2  1  0.11308900  0.53773372  0.00582903  1.0
  P  P2  1  0.11568046  0.53905624  0.12431255  1.0
  P  P2  1  0.12081415  0.53233710  0.22804466  1.0
  P  P2  1  0.12370306  0.54345547  0.34421065  1.0
  P  P2  1  0.05227299  0.65532082  0.21770022  1.0
  P  P2  1  0.11544365  0.54687282  0.56246087  1.0
  P  P2  1  0.96909558  0.47770657  0.70408419  1.0
  P  P2  1  0.30512807  0.61070109  0.72276721  1.0
  P  P2  1  0.11584091  0.53840660  0.89408843  1.0
  P  P2  1  0.11659909  0.71452813  0.01245265  1.0
  P  P2  1  0.30551075  0.63151164  0.90201276  1.0
  P  P2  1  0.09251044  0.74724775  0.02160643  1.0
  P  P2  1  0.12755897  0.70630121  0.33816128  1.0
  P  P2  1  0.11310210  0.70558593  0.45671534  1.0
  P  P2  1  0.12097886  0.72613559  0.55803921  1.0
  P  P2  1  0.11789050  0.70417028  0.67763129  1.0
  P  P2  1  0.16727438  0.71357828  0.89167715  1.0
  P  P2  1  0.12087796  0.69547606  0.88498171  1.0
  P  P2  1  0.11621668  0.87871528  0.01095208  1.0
  P  P2  1  0.12697412  0.87566513  0.11958464  1.0
  P  P2  1  0.12322698  0.87272384  0.23339518  1.0
  P  P2  1  0.15882807  0.80371269  0.31385020  1.0
  P  P2  1  0.00188482  0.78371476  0.51299341  1.0
  P  P2  1  0.29932643  0.91455153  0.76185239  1.0
  P  P2  1  0.11697465  0.87915347  0.67633108  1.0
  P  P2  1  0.27824698  0.08813104  0.68635513  1.0
  P  P2  1  0.12176799  0.87409111  0.88967097  1.0
  P  P2  1  0.18114484  0.11312990  0.12462030  1.0
  P  P2  1  0.43971057  0.84207629  0.98263611  1.0
  P  P2  1  0.31891759  0.04182989  0.23121564  1.0
  P  P2  1  0.32000986  0.03765415  0.34419978  1.0
  P  P2  1  0.32413671  0.04011708  0.46384540  1.0
  P  P2  1  0.31770958  0.03648093  0.56923910  1.0
  P  P2  1  0.21724444  0.01272001  0.85882523  1.0
  P  P2  1  0.31582341  0.05092027  0.78411340  1.0
  P  P2  1  0.30841707  0.04752512  0.89802483  1.0
  P  P2  1  0.32386861  0.20296937  0.00770939  1.0
  P  P2  1  0.11239373  0.33085686  0.27103729  1.0
  P  P2  1  0.31853233  0.20967935  0.22500877  1.0
  P  P2  1  0.16931729  0.09968911  0.38007791  1.0
  P  P2  1  0.41032967  0.27503133  0.48378897  1.0
  P  P2  1  0.45570200  0.12940545  0.41454115  1.0
  P  P2  1  0.21639826  0.27259220  0.85702193  1.0
  P  P2  1  0.31503174  0.20964281  0.78630713  1.0
  P  P2  1  0.31655287  0.21131335  0.89835724  1.0
  P  P2  1  0.50682555  0.54619768  0.99313566  1.0
  P  P2  1  0.31373265  0.37001970  0.11578491  1.0
  P  P2  1  0.53777893  0.18601731  0.36400127  1.0
  P  P2  1  0.32188721  0.37457595  0.34316355  1.0
  P  P2  1  0.32571212  0.38004170  0.45860371  1.0
  P  P2  1  0.34661090  0.57004752  0.80091613  1.0
  P  P2  1  0.31443271  0.36062281  0.67788166  1.0
  P  P2  1  0.12144064  0.44810257  0.65440239  1.0
  P  P2  1  0.48595351  0.32382307  0.09482081  1.0
  P  P2  1  0.31189325  0.53741016  0.00270641  1.0
  P  P2  1  0.31106508  0.53555781  0.12361345  1.0
  P  P2  1  0.48624069  0.41760559  0.01831542  1.0
  P  P2  1  0.36448931  0.58249152  0.32341116  1.0
  P  P2  1  0.31781981  0.54635349  0.45227328  1.0
  P  P2  1  0.32547097  0.53934332  0.55025446  1.0
  P  P2  1  0.33015003  0.64571595  0.47032180  1.0
  P  P2  1  0.31684838  0.53566566  0.78693366  1.0
  P  P2  1  0.39005200  0.56237668  0.01464981  1.0
  P  P2  1  0.31836743  0.70679841  0.00359487  1.0
  P  P2  1  0.49221919  0.60536648  0.22357643  1.0
  P  P2  1  0.33732007  0.65837554  0.38778771  1.0
  P  P2  1  0.31472215  0.70800023  0.34186695  1.0
  P  P2  1  0.31842725  0.69986192  0.46225515  1.0
  P  P2  1  0.32440688  0.70068658  0.55471434  1.0
  P  P2  1  0.31701197  0.71601168  0.67554694  1.0
  P  P2  1  0.37853588  0.59829740  0.80156188  1.0
  P  P2  1  0.32217504  0.71084054  0.90107907  1.0
  P  P2  1  0.11920096  0.73633665  0.08920929  1.0
  P  P2  1  0.31824089  0.87408470  0.11958438  1.0
  P  P2  1  0.18492680  0.00095097  0.28459436  1.0
  P  P2  1  0.15743396  0.05446436  0.32768231  1.0
  P  P2  1  0.32064113  0.87993998  0.46434665  1.0
  P  P2  1  0.26477659  0.99139241  0.74346916  1.0
  P  P2  1  0.30445050  0.89151021  0.66685408  1.0
  P  P2  1  0.19700083  0.08332382  0.63806543  1.0
  P  P2  1  0.42605932  0.72654983  0.04888653  1.0
  P  P2  1  0.32827732  0.96944397  0.13620356  1.0
  P  P2  1  0.63556776  0.21641244  0.22938939  1.0
  P  P2  1  0.51930469  0.04356843  0.22367019  1.0
  P  P2  1  0.59555906  0.03791493  0.38900835  1.0
  P  P2  1  0.68892422  0.07808949  0.65513335  1.0
  P  P2  1  0.51247131  0.03581846  0.56534838  1.0
  P  P2  1  0.57399437  0.93886705  0.55544741  1.0
  P  P2  1  0.52614907  0.03200630  0.79140975  1.0
  P  P2  1  0.51845508  0.03313104  0.88668087  1.0
  P  P2  1  0.72637888  0.25412978  0.04064801  1.0
  P  P2  1  0.51681774  0.20612932  0.11550375  1.0
  P  P2  1  0.57664370  0.37834209  0.39976629  1.0
  P  P2  1  0.57898194  0.97878279  0.17864402  1.0
  P  P2  1  0.52132689  0.20149342  0.44509937  1.0
  P  P2  1  0.51882987  0.20924909  0.57132369  1.0
  P  P2  1  0.49501908  0.41534774  0.73509441  1.0
  P  P2  1  0.49496294  0.24724663  0.56755753  1.0
  P  P2  1  0.52200287  0.21191766  0.90098075  1.0
  P  P2  1  0.51086115  0.37408765  0.00693512  1.0
  P  P2  1  0.72915690  0.41777976  0.19250622  1.0
  P  P2  1  0.51508379  0.37913657  0.22512572  1.0
  P  P2  1  0.68460502  0.49204584  0.54683102  1.0
  P  P2  1  0.51262366  0.38588823  0.44614333  1.0
  P  P2  1  0.46750919  0.32218918  0.50315651  1.0
  P  P2  1  0.49348521  0.19053757  0.76617401  1.0
  P  P2  1  0.51243310  0.38602209  0.78033049  1.0
  P  P2  1  0.49874568  0.58127720  0.73087425  1.0
  P  P2  1  0.51791613  0.53612089  0.01347031  1.0
  P  P2  1  0.41322536  0.51399504  0.27686119  1.0
  P  P2  1  0.51827667  0.53740552  0.22792899  1.0
  P  P2  1  0.52406584  0.54613975  0.34351139  1.0
  P  P2  1  0.47669780  0.39543550  0.47089224  1.0
  P  P2  1  0.61116787  0.68028027  0.46872446  1.0
  P  P2  1  0.36511473  0.60938370  0.85935566  1.0
  P  P2  1  0.50639068  0.54381398  0.78705084  1.0
  P  P2  1  0.66445137  0.68739121  0.06308161  1.0
  P  P2  1  0.50844621  0.71442304  0.00682091  1.0
  P  P2  1  0.46491822  0.60549783  0.09409641  1.0
  P  P2  1  0.50023707  0.72768425  0.28171661  1.0
  P  P2  1  0.51176664  0.70566817  0.33377117  1.0
  P  P2  1  0.56461865  0.85967357  0.67503623  1.0
  P  P2  1  0.52487190  0.70332409  0.56374224  1.0
  P  P2  1  0.36737005  0.63749140  0.72096672  1.0
  P  P2  1  0.53889030  0.92244511  0.66087461  1.0
  P  P2  1  0.52284703  0.70861892  0.89155671  1.0
  P  P2  1  0.52397372  0.88070266  0.00072376  1.0
  P  P2  1  0.65542481  0.63505612  0.17370157  1.0
  P  P2  1  0.68238834  0.07120396  0.43419708  1.0
  P  P2  1  0.50395709  0.85498976  0.37965708  1.0
  P  P2  1  0.51683459  0.87346321  0.45558467  1.0
  P  P2  1  0.72610697  0.68066127  0.71804150  1.0
  P  P2  1  0.67623021  0.73513586  0.72055046  1.0
  P  P2  1  0.51912891  0.88386641  0.78914248  1.0
  P  P2  1  0.32877335  0.73369027  0.89402853  1.0
  P  P2  1  0.62213057  0.21505139  0.85203147  1.0
  P  P2  1  0.71337933  0.04277257  0.13010337  1.0
  P  P2  1  0.71177413  0.04717476  0.22472773  1.0
  P  P2  1  0.77259773  0.88339756  0.26407191  1.0
  P  P2  1  0.63816689  0.04543867  0.40222846  1.0
  P  P2  1  0.71218650  0.04940774  0.57032148  1.0
  P  P2  1  0.72262575  0.04869941  0.66735563  1.0
  P  P2  1  0.51767285  0.82303732  0.82527017  1.0
  P  P2  1  0.71453355  0.04335492  0.90401889  1.0
  P  P2  1  0.71599231  0.20337308  0.01348331  1.0
  P  P2  1  0.71605237  0.20898628  0.11835578  1.0
  P  P2  1  0.71915721  0.20216491  0.23523357  1.0
  P  P2  1  0.56293450  0.08846042  0.47330622  1.0
  P  P2  1  0.71363960  0.20394645  0.44695699  1.0
  P  P2  1  0.73038865  0.23902866  0.55266334  1.0
  P  P2  1  0.93349303  0.00791554  0.74407518  1.0
  P  P2  1  0.70661015  0.21275464  0.77608148  1.0
  P  P2  1  0.51909038  0.30285585  0.57322687  1.0
  P  P2  1  0.79528739  0.18269494  0.15262852  1.0
  P  P2  1  0.71177952  0.37114198  0.11859231  1.0
  P  P2  1  0.70802300  0.37021606  0.22925041  1.0
  P  P2  1  0.71402054  0.37291595  0.34603126  1.0
  P  P2  1  0.73778138  0.34442795  0.61158639  1.0
  P  P2  1  0.90594759  0.23809664  0.58690287  1.0
  P  P2  1  0.82272851  0.50516930  0.78751950  1.0
  P  P2  1  0.90061603  0.45280743  0.72310184  1.0
  P  P2  1  0.71173665  0.39203367  0.89900464  1.0
  P  P2  1  0.59667705  0.94660515  0.14687213  1.0
  P  P2  1  0.84331794  0.51634351  0.13921822  1.0
  P  P2  1  0.75768666  0.34438359  0.41318827  1.0
  P  P2  1  0.71021370  0.54797321  0.34071478  1.0
  P  P2  1  0.69568229  0.74508889  0.67557268  1.0
  P  P2  1  0.72479908  0.53240129  0.57318175  1.0
  P  P2  1  0.77650184  0.30798474  0.59924306  1.0
  P  P2  1  0.71871470  0.54171851  0.78675892  1.0
  P  P2  1  0.79046842  0.72805771  0.04165429  1.0
  P  P2  1  0.57326796  0.58975144  0.00063796  1.0
  P  P2  1  0.71817583  0.71308770  0.12470465  1.0
  P  P2  1  0.72209450  0.70846962  0.23156288  1.0
  P  P2  1  0.72192353  0.70199827  0.33588302  1.0
  P  P2  1  0.86796647  0.81260508  0.23386595  1.0
  P  P2  1  0.71704128  0.72121759  0.56636494  1.0
  P  P2  1  0.81395879  0.74635995  0.68105612  1.0
  P  P2  1  0.71871409  0.70020307  0.77861608  1.0
  P  P2  1  0.48626977  0.79303297  0.03004215  1.0
  P  P2  1  0.81111266  0.87877015  0.02279959  1.0
  P  P2  1  0.51916511  0.10240532  0.31754042  1.0
  P  P2  1  0.72316203  0.88818586  0.23727277  1.0
  P  P2  1  0.61605222  0.72572921  0.43467710  1.0
  P  P2  1  0.66038348  0.76840872  0.64848748  1.0
  P  P2  1  0.79840052  0.94349900  0.61059166  1.0
  P  P2  1  0.71680250  0.87564144  0.67890991  1.0
  P  P2  1  0.71589967  0.88278517  0.78662506  1.0
  P  P2  1  0.72190730  0.87316355  0.91275808  1.0
  P  P2  1  0.91979269  0.05161555  0.00527585  1.0
  P  P2  1  0.91522773  0.81178311  0.18438074  1.0
  P  P2  1  0.75966107  0.07565562  0.47235496  1.0
  P  P2  1  0.91775356  0.04033966  0.33906486  1.0
  P  P2  1  0.91990034  0.12436523  0.66108193  1.0
  P  P2  1  0.91506706  0.03565765  0.54272012  1.0
  P  P2  1  0.82666947  0.96767721  0.62758368  1.0
  P  P2  1  0.93904155  0.09185443  0.87359360  1.0
  P  P2  1  0.91128141  0.04565503  0.90007671  1.0
  P  P2  1  0.91221861  0.21009038  0.01194314  1.0
  P  P2  1  0.16458725  0.07925175  0.28985635  1.0
  P  P2  1  0.76719618  0.33723558  0.45943549  1.0
  P  P2  1  0.10664369  0.09618064  0.32963998  1.0
  P  P2  1  0.07368766  0.34137997  0.35129669  1.0
  P  P2  1  0.07210735  0.34852504  0.64760479  1.0
  P  P2  1  0.91235640  0.21633625  0.68810003  1.0
  P  P2  1  0.91286112  0.20243092  0.65473941  1.0
  P  P2  1  0.91403393  0.13519147  0.69147519  1.0
  P  P2  1  0.92373275  0.38183497  0.02036268  1.0
  P  P2  1  0.02921972  0.52064735  0.98855978  1.0
  P  P2  1  0.01909258  0.40632526  0.41210832  1.0
  P  P2  1  0.15247027  0.29595052  0.13930310  1.0
  P  P2  1  0.91672590  0.37660833  0.44934826  1.0
  P  P2  1  0.15148850  0.32068026  0.43044532  1.0
  P  P2  1  0.92455484  0.36598465  0.68001977  1.0
  P  P2  1  0.09282069  0.19479343  0.94011083  1.0
  P  P2  1  0.92222547  0.37723701  0.89794911  1.0
  P  P2  1  0.92171437  0.54926356  0.00998420  1.0
  P  P2  1  0.92390938  0.55920765  0.12055261  1.0
  P  P2  1  0.91795424  0.76945583  0.18126188  1.0
  P  P2  1  0.92356601  0.54219629  0.34341929  1.0
  P  P2  1  0.05518353  0.46743655  0.26222348  1.0
  P  P2  1  0.91424743  0.54404270  0.57535724  1.0
  P  P2  1  0.76165066  0.65055509  0.81418167  1.0
  P  P2  1  0.91768745  0.54741320  0.78286287  1.0
  P  P2  1  0.16416977  0.28822072  0.66168755  1.0
  P  P2  1  0.91817490  0.69927697  0.01334230  1.0
  P  P2  1  0.91353670  0.71514541  0.12126898  1.0
  P  P2  1  0.72451904  0.55630479  0.42205978  1.0
  P  P2  1  0.09280896  0.91318229  0.34635304  1.0
  P  P2  1  0.91660777  0.71342267  0.44836591  1.0
  P  P2  1  0.88945587  0.78314277  0.53919564  1.0
  P  P2  1  0.89716861  0.70155661  0.66603505  1.0
  P  P2  1  0.92318444  0.71400030  0.78835059  1.0
  P  P2  1  0.91795928  0.71164785  0.89250680  1.0
  P  P2  1  0.92371470  0.87556593  0.01405345  1.0
  P  P2  1  0.92183526  0.87824946  0.12187104  1.0
  P  P2  1  0.01062618  0.02790992  0.38720137  1.0
  P  P2  1  0.12285736  0.86489204  0.15327169  1.0
  P  P2  1  0.72512082  0.02464010  0.63355366  1.0
  P  P2  1  0.90007144  0.84208888  0.60532128  1.0
  P  P2  1  0.92025439  0.86626324  0.67644737  1.0
  P  P2  1  0.08696892  0.82738083  0.57291890  1.0
  P  P2  1  0.91592963  0.88730078  0.90197874  1.0
  P  P3  1  0.11388524  0.14028785  0.90949511  1.0
  P  P3  1  0.02129141  0.04321520  0.15208189  1.0
  P  P3  1  0.16910052  0.14669839  0.23140802  1.0
  P  P3  1  0.01902438  0.04611293  0.38714130  1.0
  P  P3  1  0.02251494  0.04525808  0.48409409  1.0
  P  P3  1  0.05061940  0.05247945  0.40717848  1.0
  P  P3  1  0.01760846  0.04206565  0.71078197  1.0
  P  P3  1  0.00873343  0.03487381  0.81934029  1.0
  P  P3  1  0.99357616  0.15126104  0.94845012  1.0
  P  P3  1  0.01988581  0.20242602  0.04275144  1.0
  P  P3  1  0.18860029  0.25332499  0.11595889  1.0
  P  P3  1  0.15982006  0.12784302  0.15181640  1.0
  P  P3  1  0.85811958  0.09267176  0.40519628  1.0
  P  P3  1  0.00904781  0.21194175  0.49508504  1.0
  P  P3  1  0.83059487  0.07188628  0.46578874  1.0
  P  P3  1  0.01714008  0.19858652  0.71530152  1.0
  P  P3  1  0.12809301  0.12661165  0.72529681  1.0
  P  P3  1  0.01782560  0.21173372  0.94011115  1.0
  P  P3  1  0.01478139  0.37622505  0.04962497  1.0
  P  P3  1  0.97853839  0.36851013  0.18776424  1.0
  P  P3  1  0.01657280  0.36771713  0.27620079  1.0
  P  P3  1  0.16200997  0.13395920  0.58938199  1.0
  P  P3  1  0.01973250  0.37603192  0.47491953  1.0
  P  P3  1  0.01395290  0.37680258  0.60146136  1.0
  P  P3  1  0.09529134  0.26721384  0.87618619  1.0
  P  P3  1  0.87828560  0.29863886  0.82593350  1.0
  P  P3  1  0.01656585  0.37441955  0.93816604  1.0
  P  P3  1  0.02363648  0.53618352  0.04379779  1.0
  P  P3  1  0.95378373  0.51648082  0.09464753  1.0
  P  P3  1  0.92446650  0.64940093  0.27638427  1.0
  P  P3  1  0.07101807  0.51274370  0.34658387  1.0
  P  P3  1  0.01700904  0.54384703  0.49030135  1.0
  P  P3  1  0.01861377  0.53758638  0.59527591  1.0
  P  P3  1  0.01692978  0.54300880  0.71224786  1.0
  P  P3  1  0.13553809  0.50959076  0.90208892  1.0
  P  P3  1  0.13447388  0.52525626  0.71283092  1.0
  P  P3  1  0.01923886  0.72015399  0.05076815  1.0
  P  P3  1  0.01324074  0.69699886  0.15629762  1.0
  P  P3  1  0.02057885  0.71416743  0.26191125  1.0
  P  P3  1  0.93188654  0.86176366  0.48132373  1.0
  P  P3  1  0.01953539  0.70752534  0.48843895  1.0
  P  P3  1  0.02138162  0.71188232  0.60027373  1.0
  P  P3  1  0.03015076  0.69914797  0.71190231  1.0
  P  P3  1  0.01360902  0.71067060  0.81366233  1.0
  P  P3  1  0.18942045  0.67557288  0.04589386  1.0
  P  P3  1  0.01591079  0.87935791  0.04829037  1.0
  P  P3  1  0.87994035  0.86833621  0.00743469  1.0
  P  P3  1  0.07998270  0.04434007  0.34351523  1.0
  P  P3  1  0.08589415  0.00497915  0.30003401  1.0
  P  P3  1  0.02379738  0.87287145  0.48743375  1.0
  P  P3  1  0.94835387  0.68202792  0.80950566  1.0
  P  P3  1  0.02242003  0.87325268  0.70299187  1.0
  P  P3  1  0.01116640  0.91836468  0.86636968  1.0
  P  P3  1  0.13633424  0.65629682  0.36779952  1.0
  P  P3  1  0.39486333  0.88291154  0.15048654  1.0
  P  P3  1  0.40859037  0.19950423  0.17234058  1.0
  P  P3  1  0.21001447  0.04240459  0.26629587  1.0
  P  P3  1  0.29511665  0.16815420  0.60403105  1.0
  P  P3  1  0.33190946  0.08280204  0.29298779  1.0
  P  P3  1  0.21209190  0.04175379  0.59930437  1.0
  P  P3  1  0.33438975  0.22077158  0.50953460  1.0
  P  P3  1  0.38071560  0.26127780  0.68632267  1.0
  P  P3  1  0.22562033  0.05500367  0.93318552  1.0
  P  P3  1  0.23943276  0.32219257  0.25819252  1.0
  P  P3  1  0.22104104  0.19724946  0.15457143  1.0
  P  P3  1  0.06568176  0.25402568  0.28957807  1.0
  P  P3  1  0.21703379  0.21344543  0.37560832  1.0
  P  P3  1  0.06558863  0.13827470  0.36984159  1.0
  P  P3  1  0.20784628  0.14541848  0.69195167  1.0
  P  P3  1  0.21257572  0.21223438  0.71525658  1.0
  P  P3  1  0.23829199  0.34732901  0.65175388  1.0
  P  P3  1  0.38472886  0.08970645  0.88659076  1.0
  P  P3  1  0.08039989  0.45833653  0.23163204  1.0
  P  P3  1  0.21637286  0.38004684  0.16265863  1.0
  P  P3  1  0.21861533  0.37751993  0.27162014  1.0
  P  P3  1  0.22100964  0.36848166  0.39027583  1.0
  P  P3  1  0.23519800  0.33967330  0.32049561  1.0
  P  P3  1  0.21653194  0.37729351  0.59222747  1.0
  P  P3  1  0.16757362  0.29473500  0.89222018  1.0
  P  P3  1  0.30642354  0.30085433  0.93029225  1.0
  P  P3  1  0.21186534  0.37642817  0.93059529  1.0
  P  P3  1  0.40930952  0.58115449  0.13821767  1.0
  P  P3  1  0.22021630  0.53365732  0.15806639  1.0
  P  P3  1  0.22044216  0.54745945  0.27214436  1.0
  P  P3  1  0.23961378  0.40384125  0.58914777  1.0
  P  P3  1  0.36542285  0.51805820  0.33444520  1.0
  P  P3  1  0.22344566  0.54698696  0.59861077  1.0
  P  P3  1  0.28192115  0.64927897  0.90562273  1.0
  P  P3  1  0.21787498  0.54162163  0.83136347  1.0
  P  P3  1  0.28890210  0.68096540  0.80111729  1.0
  P  P3  1  0.18218709  0.71377014  0.93740685  1.0
  P  P3  1  0.00505287  0.91035689  0.22770015  1.0
  P  P3  1  0.17755294  0.77513217  0.29534774  1.0
  P  P3  1  0.20931402  0.70491365  0.38887171  1.0
  P  P3  1  0.22284666  0.70363230  0.48779414  1.0
  P  P3  1  0.02283054  0.81965674  0.39800890  1.0
  P  P3  1  0.30605535  0.54883823  0.60941688  1.0
  P  P3  1  0.39974261  0.54876912  0.83151085  1.0
  P  P3  1  0.21181289  0.70758845  0.93081114  1.0
  P  P3  1  0.21641176  0.86938179  0.04691338  1.0
  P  P3  1  0.45301901  0.80554591  0.03290499  1.0
  P  P3  1  0.04032344  0.71574622  0.21597771  1.0
  P  P3  1  0.16356019  0.77646294  0.62141231  1.0
  P  P3  1  0.21634378  0.87813242  0.49466257  1.0
  P  P3  1  0.25964715  0.88892065  0.62461827  1.0
  P  P3  1  0.03053840  0.79227654  0.81391312  1.0
  P  P3  1  0.21903420  0.88109225  0.82289470  1.0
  P  P3  1  0.28442784  0.70987170  0.94316508  1.0
  P  P3  1  0.44890375  0.00547497  0.16654445  1.0
  P  P3  1  0.41207327  0.04241088  0.16538827  1.0
  P  P3  1  0.41830364  0.03659426  0.27676446  1.0
  P  P3  1  0.21252370  0.24156304  0.61876895  1.0
  P  P3  1  0.58252074  0.00664743  0.71474216  1.0
  P  P3  1  0.41506273  0.02993330  0.60404672  1.0
  P  P3  1  0.41762348  0.03225123  0.71646399  1.0
  P  P3  1  0.42010734  0.03274692  0.83456829  1.0
  P  P3  1  0.62063011  0.25676006  0.15834550  1.0
  P  P3  1  0.33296904  0.29063697  0.94484198  1.0
  P  P3  1  0.49500606  0.17021143  0.01476032  1.0
  P  P3  1  0.21148833  0.30030927  0.40116194  1.0
  P  P3  1  0.41609688  0.19172375  0.38024377  1.0
  P  P3  1  0.46699809  0.34624139  0.47067823  1.0
  P  P3  1  0.53422424  0.25877430  0.39934575  1.0
  P  P3  1  0.63118759  0.36412460  0.75687298  1.0
  P  P3  1  0.27472407  0.12269483  0.70268563  1.0
  P  P3  1  0.18706616  0.30125900  0.12742047  1.0
  P  P3  1  0.42129527  0.36927619  0.03510737  1.0
  P  P3  1  0.42670364  0.37137952  0.16152571  1.0
  P  P3  1  0.41825107  0.38105093  0.27391892  1.0
  P  P3  1  0.41884647  0.37735920  0.38643793  1.0
  P  P3  1  0.32467481  0.53569730  0.58791108  1.0
  P  P3  1  0.30856980  0.57263937  0.75665593  1.0
  P  P3  1  0.53215850  0.63360820  0.94766826  1.0
  P  P3  1  0.42784728  0.37493368  0.83400335  1.0
  P  P3  1  0.51396601  0.29950942  0.72129323  1.0
  P  P3  1  0.41035340  0.54169325  0.04380189  1.0
  P  P3  1  0.41858419  0.55001594  0.16232229  1.0
  P  P3  1  0.41398399  0.54729396  0.26374367  1.0
  P  P3  1  0.27043907  0.50882620  0.50850730  1.0
  P  P3  1  0.41425576  0.54771383  0.49452639  1.0
  P  P3  1  0.41560386  0.53177983  0.59805134  1.0
  P  P3  1  0.31829624  0.43170001  0.52336293  1.0
  P  P3  1  0.41828694  0.53953134  0.82928264  1.0
  P  P3  1  0.42385922  0.53874800  0.93150427  1.0
  P  P3  1  0.40986554  0.70384088  0.05014341  1.0
  P  P3  1  0.08918176  0.85126308  0.90624362  1.0
  P  P3  1  0.39978840  0.65894185  0.29334242  1.0
  P  P3  1  0.46055903  0.72717492  0.32770824  1.0
  P  P3  1  0.30806866  0.82399597  0.54515261  1.0
  P  P3  1  0.42300829  0.71155340  0.60193148  1.0
  P  P3  1  0.42150184  0.70259347  0.70891603  1.0
  P  P3  1  0.48027283  0.48342711  0.76150406  1.0
  P  P3  1  0.42040792  0.71630853  0.94364327  1.0
  P  P3  1  0.41680958  0.87968617  0.04211894  1.0
  P  P3  1  0.41524602  0.88332062  0.15739376  1.0
  P  P3  1  0.30259980  0.04789240  0.50153374  1.0
  P  P3  1  0.51824959  0.94676613  0.47829257  1.0
  P  P3  1  0.21680724  0.04898680  0.32502858  1.0
  P  P3  1  0.30192717  0.68432375  0.55385123  1.0
  P  P3  1  0.63002813  0.91268363  0.84939331  1.0
  P  P3  1  0.42141835  0.86078027  0.82797238  1.0
  P  P3  1  0.41848978  0.87159182  0.93059356  1.0
  P  P3  1  0.61714834  0.04306959  0.04855822  1.0
  P  P3  1  0.50140700  0.08328537  0.35440248  1.0
  P  P3  1  0.61155075  0.05417029  0.26904528  1.0
  P  P3  1  0.69186157  0.86481376  0.24553717  1.0
  P  P3  1  0.69019205  0.15165151  0.33708845  1.0
  P  P3  1  0.55889347  0.98173246  0.53341251  1.0
  P  P3  1  0.61817599  0.03432706  0.71156508  1.0
  P  P3  1  0.61421579  0.04571245  0.82450101  1.0
  P  P3  1  0.56772585  0.88555999  0.70545548  1.0
  P  P3  1  0.69000577  0.09934500  0.90019485  1.0
  P  P3  1  0.61715469  0.20377085  0.15035837  1.0
  P  P3  1  0.62677196  0.21596109  0.26546474  1.0
  P  P3  1  0.61601341  0.19603032  0.37115951  1.0
  P  P3  1  0.51955272  0.28502560  0.69537718  1.0
  P  P3  1  0.61911603  0.21246187  0.60356979  1.0
  P  P3  1  0.61206137  0.21030464  0.71662725  1.0
  P  P3  1  0.61532696  0.19710001  0.83072706  1.0
  P  P3  1  0.76816629  0.25432824  0.90838655  1.0
  P  P3  1  0.61506991  0.38983862  0.04855540  1.0
  P  P3  1  0.43155809  0.22204189  0.15374791  1.0
  P  P3  1  0.61776608  0.38723228  0.26382768  1.0
  P  P3  1  0.62012267  0.37062111  0.37891784  1.0
  P  P3  1  0.61323997  0.23810579  0.59196312  1.0
  P  P3  1  0.68809164  0.59832750  0.50998884  1.0
  P  P3  1  0.60957543  0.38525742  0.71108829  1.0
  P  P3  1  0.43506921  0.53951672  0.82651025  1.0
  P  P3  1  0.69778251  0.57954134  0.93912237  1.0
  P  P3  1  0.60571089  0.54349515  0.03431883  1.0
  P  P3  1  0.66102604  0.26306094  0.25601543  1.0
  P  P3  1  0.61840905  0.54723742  0.27236898  1.0
  P  P3  1  0.62340852  0.54125291  0.36858595  1.0
  P  P3  1  0.62333094  0.54021384  0.48615868  1.0
  P  P3  1  0.59430000  0.43347320  0.44438722  1.0
  P  P3  1  0.61104208  0.54451643  0.70853766  1.0
  P  P3  1  0.61803103  0.54393865  0.82955115  1.0
  P  P3  1  0.62803903  0.54310981  0.93307207  1.0
  P  P3  1  0.61220947  0.64518678  0.18819187  1.0
  P  P3  1  0.71061643  0.55520399  0.31178770  1.0
  P  P3  1  0.43088093  0.85746141  0.16539803  1.0
  P  P3  1  0.60110651  0.87213378  0.50234782  1.0
  P  P3  1  0.68949262  0.59954372  0.70977601  1.0
  P  P3  1  0.61107838  0.69605334  0.60677078  1.0
  P  P3  1  0.61077408  0.71337237  0.70969127  1.0
  P  P3  1  0.78864931  0.82572576  0.93151388  1.0
  P  P3  1  0.61307188  0.71183639  0.93161657  1.0
  P  P3  1  0.62299627  0.86993612  0.04840826  1.0
  P  P3  1  0.54592247  0.68770508  0.97683922  1.0
  P  P3  1  0.55932059  0.75333749  0.44529523  1.0
  P  P3  1  0.61452651  0.87456272  0.38687698  1.0
  P  P3  1  0.40910068  0.69180393  0.61804783  1.0
  P  P3  1  0.61192801  0.86353674  0.60536054  1.0
  P  P3  1  0.61788944  0.87833112  0.71388357  1.0
  P  P3  1  0.61741409  0.87673039  0.83600175  1.0
  P  P3  1  0.66664215  0.88314731  0.91099113  1.0
  P  P3  1  0.81928315  0.89325309  0.18088159  1.0
  P  P3  1  0.00932280  0.11075253  0.33198832  1.0
  P  P3  1  0.81575566  0.04148537  0.26847144  1.0
  P  P3  1  0.79561568  0.07482247  0.24597296  1.0
  P  P3  1  0.78212359  0.22089946  0.56213334  1.0
  P  P3  1  0.91468940  0.89283612  0.49295569  1.0
  P  P3  1  0.88382664  0.07897704  0.76508818  1.0
  P  P3  1  0.81818447  0.04154963  0.82899910  1.0
  P  P3  1  0.81965441  0.04137337  0.93548648  1.0
  P  P3  1  0.81205425  0.21726064  0.06263433  1.0
  P  P3  1  0.81581082  0.20862353  0.16313978  1.0
  P  P3  1  0.82249950  0.20941814  0.26340531  1.0
  P  P3  1  0.67851301  0.12035233  0.54066966  1.0
  P  P3  1  0.81579570  0.20848940  0.48243958  1.0
  P  P3  1  0.82115876  0.21432430  0.60330699  1.0
  P  P3  1  0.88913728  0.40409779  0.88025705  1.0
  P  P3  1  0.81374960  0.21401559  0.82713467  1.0
  P  P3  1  0.81609205  0.20494065  0.93441461  1.0
  P  P3  1  0.92334344  0.63029815  0.87077480  1.0
  P  P3  1  0.82329389  0.37680963  0.15974251  1.0
  P  P3  1  0.67655832  0.60228830  0.19727062  1.0
  P  P3  1  0.82458924  0.37885764  0.38205231  1.0
  P  P3  1  0.71642143  0.53019617  0.33040898  1.0
  P  P3  1  0.79641718  0.47010386  0.60511344  1.0
  P  P3  1  0.82162046  0.37637855  0.70802962  1.0
  P  P3  1  0.79870592  0.34019544  0.63450842  1.0
  P  P3  1  0.81775817  0.59886998  0.83023471  1.0
  P  P3  1  0.82934643  0.53429991  0.04854215  1.0
  P  P3  1  0.01326078  0.69434709  0.21904740  1.0
  P  P3  1  0.95461560  0.46074382  0.34196296  1.0
  P  P3  1  0.65272816  0.30794017  0.19568667  1.0
  P  P3  1  0.05969402  0.46553897  0.61470247  1.0
  P  P3  1  0.94366921  0.64969101  0.53037554  1.0
  P  P3  1  0.79670723  0.56497193  0.79616827  1.0
  P  P3  1  0.82349619  0.53611492  0.81924197  1.0
  P  P3  1  0.91438009  0.51667199  0.03321946  1.0
  P  P3  1  0.81485458  0.71494440  0.04007283  1.0
  P  P3  1  0.77459812  0.85374009  0.24759975  1.0
  P  P3  1  0.82035758  0.71369053  0.26579416  1.0
  P  P3  1  0.82157616  0.86497837  0.23087561  1.0
  P  P3  1  0.61195878  0.90484742  0.59363199  1.0
  P  P3  1  0.97115273  0.75110113  0.53073050  1.0
  P  P3  1  0.86311148  0.80047206  0.66064288  1.0
  P  P3  1  0.81598472  0.69412957  0.82040214  1.0
  P  P3  1  0.00415284  0.78669474  0.83269485  1.0
  P  P3  1  0.81534356  0.86539594  0.05174993  1.0
  P  P3  1  0.81179468  0.87340625  0.15206622  1.0
  P  P3  1  0.71166915  0.73338801  0.10637789  1.0
  P  P3  1  0.82091054  0.86592450  0.37940033  1.0
  P  P3  1  0.85775634  0.85451178  0.51539228  1.0
  P  P3  1  0.82070466  0.87163417  0.60611233  1.0
  P  P3  1  0.81188379  0.63905800  0.81444341  1.0
  P  P3  1  0.81279366  0.87931712  0.82169900  1.0
  P  P3  1  0.81206511  0.86763745  0.93918739  1.0
  S  S4  1  0.15637941  0.11884901  0.10846344  1.0
  S  S4  1  0.16736086  0.12935878  0.21426180  1.0
  S  S4  1  0.16812711  0.11490746  0.31582281  1.0
  S  S4  1  0.16237685  0.12793272  0.43780257  1.0
  S  S4  1  0.16469276  0.12452077  0.54531087  1.0
  S  S4  1  0.16947037  0.12036420  0.66529980  1.0
  S  S4  1  0.17246410  0.12544463  0.76466297  1.0
  S  S4  1  0.16491864  0.12742073  0.87601950  1.0
  S  S4  1  0.16974762  0.11344490  0.98682548  1.0
  S  S4  1  0.16853541  0.29755468  0.09579859  1.0
  S  S4  1  0.16166239  0.29437228  0.21158444  1.0
  S  S4  1  0.16048328  0.28149352  0.31952110  1.0
  S  S4  1  0.16866191  0.30011885  0.42826690  1.0
  S  S4  1  0.17176969  0.27973717  0.54723272  1.0
  S  S4  1  0.17795435  0.29299770  0.65176438  1.0
  S  S4  1  0.17523309  0.29378921  0.76832547  1.0
  S  S4  1  0.16385470  0.29384520  0.87416890  1.0
  S  S4  1  0.17063479  0.29196197  0.99561598  1.0
  S  S4  1  0.16620445  0.45742473  0.10517040  1.0
  S  S4  1  0.16790165  0.45820237  0.20971798  1.0
  S  S4  1  0.16826304  0.46241533  0.33304413  1.0
  S  S4  1  0.16070055  0.45063717  0.43338498  1.0
  S  S4  1  0.16932783  0.45700918  0.54225312  1.0
  S  S4  1  0.16292780  0.45461754  0.66082903  1.0
  S  S4  1  0.16954461  0.46244334  0.76093424  1.0
  S  S4  1  0.17628948  0.45491492  0.88118829  1.0
  S  S4  1  0.16845557  0.45504798  0.99206855  1.0
  S  S4  1  0.17207788  0.64135344  0.10430414  1.0
  S  S4  1  0.17219649  0.63196527  0.21483019  1.0
  S  S4  1  0.16888673  0.62698166  0.32770033  1.0
  S  S4  1  0.17540485  0.61575120  0.42310362  1.0
  S  S4  1  0.17581139  0.62014838  0.53623638  1.0
  S  S4  1  0.16033381  0.63596215  0.66115788  1.0
  S  S4  1  0.16511072  0.62041428  0.76778771  1.0
  S  S4  1  0.17337027  0.62321131  0.87431873  1.0
  S  S4  1  0.17474640  0.62484280  0.98866738  1.0
  S  S4  1  0.17203602  0.77866958  0.10340470  1.0
  S  S4  1  0.17113138  0.78327757  0.20135923  1.0
  S  S4  1  0.16709931  0.79154940  0.32580546  1.0
  S  S4  1  0.17758698  0.79278256  0.42653655  1.0
  S  S4  1  0.16782710  0.78376593  0.54429114  1.0
  S  S4  1  0.17611359  0.79446062  0.65245187  1.0
  S  S4  1  0.17203710  0.78693477  0.75243720  1.0
  S  S4  1  0.16292218  0.79445574  0.88280669  1.0
  S  S4  1  0.17765488  0.79374235  0.99704870  1.0
  S  S4  1  0.17222556  0.96403634  0.10682298  1.0
  S  S4  1  0.17151130  0.96487254  0.20812852  1.0
  S  S4  1  0.15696579  0.96229233  0.32508576  1.0
  S  S4  1  0.16471045  0.95065278  0.43486730  1.0
  S  S4  1  0.17265903  0.96149638  0.53971295  1.0
  S  S4  1  0.16510927  0.96240637  0.65677368  1.0
  S  S4  1  0.17437252  0.95636660  0.77151687  1.0
  S  S4  1  0.16888206  0.95393593  0.88365544  1.0
  S  S4  1  0.16412492  0.95878446  0.99067783  1.0
  S  S4  1  0.36847949  0.13102786  0.10394109  1.0
  S  S4  1  0.37134361  0.12541652  0.22204422  1.0
  S  S4  1  0.37639194  0.13059366  0.32715727  1.0
  S  S4  1  0.36607339  0.12470141  0.43761869  1.0
  S  S4  1  0.37432972  0.13042707  0.54843100  1.0
  S  S4  1  0.37906757  0.12417510  0.66189633  1.0
  S  S4  1  0.37353027  0.12770162  0.77010604  1.0
  S  S4  1  0.37137814  0.12069121  0.88078337  1.0
  S  S4  1  0.37281558  0.12695861  0.97967782  1.0
  S  S4  1  0.36116150  0.28668868  0.10021259  1.0
  S  S4  1  0.36526321  0.29559629  0.21842581  1.0
  S  S4  1  0.37573797  0.29371577  0.32894956  1.0
  S  S4  1  0.36627162  0.29074403  0.42779931  1.0
  S  S4  1  0.37510511  0.30362716  0.54336796  1.0
  S  S4  1  0.35824608  0.28585416  0.65283648  1.0
  S  S4  1  0.36245930  0.28539844  0.76860339  1.0
  S  S4  1  0.37237348  0.27910725  0.87570147  1.0
  S  S4  1  0.36926809  0.28517663  0.99099754  1.0
  S  S4  1  0.36849177  0.45560418  0.09611359  1.0
  S  S4  1  0.37044491  0.45368840  0.20249411  1.0
  S  S4  1  0.36919032  0.45079532  0.31407809  1.0
  S  S4  1  0.36972660  0.45734222  0.42943687  1.0
  S  S4  1  0.37022292  0.46091247  0.54657294  1.0
  S  S4  1  0.37009604  0.44856645  0.66342167  1.0
  S  S4  1  0.37186302  0.45254888  0.76742485  1.0
  S  S4  1  0.36997007  0.45809400  0.88836629  1.0
  S  S4  1  0.35936887  0.44935239  0.97718947  1.0
  S  S4  1  0.36947876  0.62830970  0.10279175  1.0
  S  S4  1  0.36763663  0.62747332  0.21031866  1.0
  S  S4  1  0.37234517  0.63179935  0.31805987  1.0
  S  S4  1  0.36764405  0.62423547  0.44191948  1.0
  S  S4  1  0.36501912  0.63167800  0.53728146  1.0
  S  S4  1  0.37549208  0.62989113  0.65570734  1.0
  S  S4  1  0.37365624  0.62195236  0.76246259  1.0
  S  S4  1  0.37759904  0.62170754  0.88228744  1.0
  S  S4  1  0.37461558  0.62990559  0.99297517  1.0
  S  S4  1  0.37247559  0.79810004  0.10255276  1.0
  S  S4  1  0.36888210  0.78333826  0.21366608  1.0
  S  S4  1  0.37421369  0.78497005  0.32179684  1.0
  S  S4  1  0.37120356  0.80086765  0.42784516  1.0
  S  S4  1  0.37304109  0.78948995  0.54159758  1.0
  S  S4  1  0.36449710  0.78767845  0.65909627  1.0
  S  S4  1  0.36794292  0.79601197  0.76137850  1.0
  S  S4  1  0.37255956  0.79430579  0.87038747  1.0
  S  S4  1  0.37659945  0.79373459  0.99388019  1.0
  S  S4  1  0.37485168  0.96422477  0.10013538  1.0
  S  S4  1  0.37270016  0.94732133  0.21407806  1.0
  S  S4  1  0.37772895  0.95410277  0.32803066  1.0
  S  S4  1  0.37793113  0.96252635  0.43974065  1.0
  S  S4  1  0.36124485  0.95264541  0.55305402  1.0
  S  S4  1  0.37387428  0.96135104  0.65493651  1.0
  S  S4  1  0.37050089  0.96890793  0.76693386  1.0
  S  S4  1  0.37257082  0.96242763  0.87497330  1.0
  S  S4  1  0.36614116  0.96762343  0.99281644  1.0
  S  S4  1  0.56568358  0.12310623  0.09545401  1.0
  S  S4  1  0.57440421  0.12346829  0.21063459  1.0
  S  S4  1  0.57327805  0.11478265  0.32284345  1.0
  S  S4  1  0.56902558  0.12326240  0.43116238  1.0
  S  S4  1  0.56553523  0.12671838  0.53976502  1.0
  S  S4  1  0.56988467  0.12163622  0.65372847  1.0
  S  S4  1  0.57006342  0.12197274  0.77439012  1.0
  S  S4  1  0.56838076  0.13136764  0.87445000  1.0
  S  S4  1  0.56516559  0.11488224  0.98703047  1.0
  S  S4  1  0.56791878  0.29213529  0.10462049  1.0
  S  S4  1  0.57219912  0.29857572  0.20710046  1.0
  S  S4  1  0.56908355  0.28515620  0.32260504  1.0
  S  S4  1  0.57808724  0.28438779  0.43790043  1.0
  S  S4  1  0.57431505  0.28623546  0.54764322  1.0
  S  S4  1  0.56728313  0.29092951  0.65423694  1.0
  S  S4  1  0.56795737  0.29869672  0.76705783  1.0
  S  S4  1  0.56607633  0.29208644  0.86704135  1.0
  S  S4  1  0.56500187  0.29926289  0.98891946  1.0
  S  S4  1  0.56669355  0.45938565  0.10483438  1.0
  S  S4  1  0.57571337  0.45558936  0.20960204  1.0
  S  S4  1  0.56796587  0.46459458  0.32335513  1.0
  S  S4  1  0.57989255  0.45735379  0.44376075  1.0
  S  S4  1  0.56462179  0.44987773  0.54471421  1.0
  S  S4  1  0.57476807  0.45543147  0.65301968  1.0
  S  S4  1  0.57419710  0.46262304  0.76317283  1.0
  S  S4  1  0.56483219  0.46337861  0.86971167  1.0
  S  S4  1  0.57446922  0.46254231  0.97728764  1.0
  S  S4  1  0.56915772  0.61296089  0.09425845  1.0
  S  S4  1  0.56656906  0.61728698  0.22401502  1.0
  S  S4  1  0.57339357  0.63331927  0.32228034  1.0
  S  S4  1  0.56923210  0.63461688  0.43651797  1.0
  S  S4  1  0.57213645  0.61945653  0.54027850  1.0
  S  S4  1  0.57038317  0.62726908  0.65094691  1.0
  S  S4  1  0.57086950  0.61756756  0.76756422  1.0
  S  S4  1  0.56190375  0.63307928  0.87690486  1.0
  S  S4  1  0.56561755  0.61802952  0.98294637  1.0
  S  S4  1  0.57125866  0.79777363  0.10574459  1.0
  S  S4  1  0.57605209  0.80230231  0.21715089  1.0
  S  S4  1  0.56656945  0.79269776  0.31075140  1.0
  S  S4  1  0.57226294  0.79257477  0.44284430  1.0
  S  S4  1  0.56536899  0.79480298  0.53980174  1.0
  S  S4  1  0.56853069  0.78171798  0.66376377  1.0
  S  S4  1  0.57433506  0.78879093  0.76891503  1.0
  S  S4  1  0.56927213  0.78794096  0.87927100  1.0
  S  S4  1  0.56686959  0.79763089  0.98856290  1.0
  S  S4  1  0.58101408  0.95785972  0.10143645  1.0
  S  S4  1  0.57171668  0.96342581  0.21235804  1.0
  S  S4  1  0.57160796  0.95944548  0.31880373  1.0
  S  S4  1  0.56384740  0.96258744  0.44241948  1.0
  S  S4  1  0.56093792  0.94960569  0.53740041  1.0
  S  S4  1  0.57294969  0.96355693  0.65105994  1.0
  S  S4  1  0.58009177  0.95599126  0.77530843  1.0
  S  S4  1  0.57311641  0.95250441  0.87632310  1.0
  S  S4  1  0.56472470  0.95015472  0.98833189  1.0
  S  S4  1  0.76309632  0.12393565  0.11135048  1.0
  S  S4  1  0.77255802  0.12161051  0.20845439  1.0
  S  S4  1  0.76707752  0.13760043  0.31711649  1.0
  S  S4  1  0.76907117  0.12783119  0.44077597  1.0
  S  S4  1  0.76741923  0.11914324  0.54684349  1.0
  S  S4  1  0.77564309  0.12333982  0.65180571  1.0
  S  S4  1  0.76963018  0.11512236  0.76629792  1.0
  S  S4  1  0.77496096  0.13032242  0.87781641  1.0
  S  S4  1  0.77736374  0.13661936  0.99332820  1.0
  S  S4  1  0.76175256  0.28022959  0.10835769  1.0
  S  S4  1  0.77030174  0.30161711  0.20464191  1.0
  S  S4  1  0.76827533  0.29792809  0.31906950  1.0
  S  S4  1  0.77414603  0.29091970  0.43430839  1.0
  S  S4  1  0.76317104  0.29319606  0.55721016  1.0
  S  S4  1  0.77101709  0.28684995  0.77509000  1.0
  S  S4  1  0.76527807  0.30213758  0.87165566  1.0
  S  S4  1  0.77044142  0.30095250  0.98498980  1.0
  S  S4  1  0.76949515  0.46537409  0.08853705  1.0
  S  S4  1  0.77370721  0.45779840  0.21978724  1.0
  S  S4  1  0.76494895  0.44989642  0.32008668  1.0
  S  S4  1  0.76626480  0.45707711  0.43160334  1.0
  S  S4  1  0.75905613  0.45775563  0.54652920  1.0
  S  S4  1  0.76811529  0.46007835  0.65684047  1.0
  S  S4  1  0.76218078  0.45650299  0.76810927  1.0
  S  S4  1  0.76789599  0.44925144  0.88526194  1.0
  S  S4  1  0.76422678  0.45077601  0.98993344  1.0
  S  S4  1  0.76750367  0.62865907  0.10557532  1.0
  S  S4  1  0.77267722  0.62498915  0.21494699  1.0
  S  S4  1  0.76129207  0.63165791  0.32083945  1.0
  S  S4  1  0.77891436  0.63184310  0.43308100  1.0
  S  S4  1  0.76918689  0.63220364  0.53295645  1.0
  S  S4  1  0.76828009  0.63535118  0.66097945  1.0
  S  S4  1  0.76489795  0.62691321  0.76216912  1.0
  S  S4  1  0.76737532  0.62703101  0.88137687  1.0
  S  S4  1  0.77272142  0.63250616  0.98320923  1.0
  S  S4  1  0.76919992  0.78649330  0.09864977  1.0
  S  S4  1  0.76531368  0.79470496  0.21766883  1.0
  S  S4  1  0.77460646  0.78494298  0.32237288  1.0
  S  S4  1  0.76342430  0.78457153  0.43055130  1.0
  S  S4  1  0.77079382  0.79482366  0.54883007  1.0
  S  S4  1  0.77203718  0.78650848  0.66281993  1.0
  S  S4  1  0.77309015  0.78915593  0.76544681  1.0
  S  S4  1  0.76579741  0.78380731  0.88222765  1.0
  S  S4  1  0.77318391  0.78603272  0.98300153  1.0
  S  S4  1  0.76440460  0.95900404  0.09329499  1.0
  S  S4  1  0.77471028  0.96483061  0.21424462  1.0
  S  S4  1  0.77312238  0.95869079  0.32557800  1.0
  S  S4  1  0.76258920  0.96679278  0.43150108  1.0
  S  S4  1  0.76843700  0.97346505  0.54406835  1.0
  S  S4  1  0.77277126  0.96146366  0.64911830  1.0
  S  S4  1  0.76408906  0.97071934  0.77064342  1.0
  S  S4  1  0.76899576  0.95507454  0.88034337  1.0
  S  S4  1  0.77115251  0.95971145  0.99553343  1.0
  S  S4  1  0.96475245  0.11891190  0.10650353  1.0
  S  S4  1  0.97962700  0.13012619  0.21900182  1.0
  S  S4  1  0.96870638  0.12661900  0.32442059  1.0
  S  S4  1  0.96880330  0.13358610  0.44023325  1.0
  S  S4  1  0.96708693  0.11498858  0.54492040  1.0
  S  S4  1  0.96331572  0.12514404  0.65051785  1.0
  S  S4  1  0.97535281  0.12916392  0.77108444  1.0
  S  S4  1  0.97443259  0.12737943  0.88157827  1.0
  S  S4  1  0.97624233  0.12418163  0.99300700  1.0
  S  S4  1  0.96382250  0.29214897  0.11312789  1.0
  S  S4  1  0.97314779  0.29114349  0.21337421  1.0
  S  S4  1  0.96897517  0.29307630  0.32087117  1.0
  S  S4  1  0.97155051  0.29489298  0.43419171  1.0
  S  S4  1  0.96977921  0.29373984  0.54239493  1.0
  S  S4  1  0.97150258  0.29641302  0.66435648  1.0
  S  S4  1  0.97066939  0.28828627  0.76692822  1.0
  S  S4  1  0.96337407  0.29609176  0.86738127  1.0
  S  S4  1  0.97419530  0.29863463  0.97374884  1.0
  S  S4  1  0.97544648  0.46458317  0.09924239  1.0
  S  S4  1  0.96313019  0.45323654  0.20780191  1.0
  S  S4  1  0.97565004  0.45560145  0.32797548  1.0
  S  S4  1  0.96846066  0.45866840  0.42559662  1.0
  S  S4  1  0.96335357  0.46620033  0.54441849  1.0
  S  S4  1  0.97058096  0.46932291  0.65568263  1.0
  S  S4  1  0.05236020  0.44135429  0.65669504  1.0
  S  S4  1  0.97067755  0.46439780  0.87860062  1.0
  S  S4  1  0.97301182  0.45762854  0.99505509  1.0
  S  S4  1  0.97118336  0.62362868  0.10122664  1.0
  S  S4  1  0.95687735  0.63226272  0.20509970  1.0
  S  S4  1  0.96374273  0.62233517  0.31327876  1.0
  S  S4  1  0.97141444  0.62719635  0.43150552  1.0
  S  S4  1  0.96569508  0.62078149  0.54861530  1.0
  S  S4  1  0.96112377  0.62251172  0.64804743  1.0
  S  S4  1  0.97291774  0.62295448  0.77046688  1.0
  S  S4  1  0.97531797  0.63270473  0.87303291  1.0
  S  S4  1  0.97062489  0.63182238  0.99350462  1.0
  S  S4  1  0.97305046  0.78081722  0.10453223  1.0
  S  S4  1  0.96512151  0.79571051  0.21543452  1.0
  S  S4  1  0.97202500  0.79099350  0.33021282  1.0
  S  S4  1  0.97162757  0.79362272  0.42906609  1.0
  S  S4  1  0.97105737  0.80370482  0.53769474  1.0
  S  S4  1  0.97272485  0.79687589  0.66577619  1.0
  S  S4  1  0.97270305  0.79173164  0.76979073  1.0
  S  S4  1  0.96774181  0.79908443  0.87016315  1.0
  S  S4  1  0.96664444  0.79438100  0.99608883  1.0
  S  S4  1  0.96901119  0.95357372  0.09967366  1.0
  S  S4  1  0.96724805  0.95638057  0.20956304  1.0
  S  S4  1  0.96690967  0.94789384  0.32467930  1.0
  S  S4  1  0.97244842  0.96744932  0.43884191  1.0
  S  S4  1  0.97312050  0.96013422  0.53566655  1.0
  S  S4  1  0.97047853  0.95901701  0.66198720  1.0
  S  S4  1  0.97191298  0.95754321  0.77815438  1.0
  S  S4  1  0.97331568  0.96040101  0.88107996  1.0
  S  S4  1  0.96938544  0.95843374  0.97789055  1.0
  S  S5  1  0.06451170  0.12170909  0.06829892  1.0
  S  S5  1  0.06083443  0.12182930  0.17341891  1.0
  S  S5  1  0.06966287  0.12775673  0.39566022  1.0
  S  S5  1  0.06621479  0.12086119  0.50816397  1.0
  S  S5  1  0.06882467  0.13300101  0.61588524  1.0
  S  S5  1  0.07782058  0.11749366  0.73771077  1.0
  S  S5  1  0.06670472  0.11945788  0.85079489  1.0
  S  S5  1  0.06948813  0.12526457  0.95322418  1.0
  S  S5  1  0.06617721  0.29059077  0.04826845  1.0
  S  S5  1  0.05982596  0.29405347  0.18339780  1.0
  S  S5  1  0.07588717  0.28584445  0.28911691  1.0
  S  S5  1  0.05812969  0.28952887  0.40366419  1.0
  S  S5  1  0.06899265  0.28964837  0.51021651  1.0
  S  S5  1  0.07548426  0.29017794  0.62179567  1.0
  S  S5  1  0.07666515  0.29027759  0.72359744  1.0
  S  S5  1  0.07591139  0.29784538  0.83154868  1.0
  S  S5  1  0.06843009  0.29153183  0.96218798  1.0
  S  S5  1  0.06900820  0.45934275  0.06691737  1.0
  S  S5  1  0.06675317  0.46622547  0.28375141  1.0
  S  S5  1  0.06369404  0.45949041  0.39156501  1.0
  S  S5  1  0.07789331  0.45832813  0.51478029  1.0
  S  S5  1  0.06657459  0.46124337  0.63118890  1.0
  S  S5  1  0.07377703  0.46992304  0.72947056  1.0
  S  S5  1  0.06814821  0.45319098  0.84309809  1.0
  S  S5  1  0.07239542  0.46204591  0.96367004  1.0
  S  S5  1  0.07152717  0.62500342  0.05989800  1.0
  S  S5  1  0.07340486  0.62404790  0.18179791  1.0
  S  S5  1  0.06695945  0.63230491  0.29017082  1.0
  S  S5  1  0.07403354  0.62734722  0.39413774  1.0
  S  S5  1  0.06725596  0.61721016  0.51129460  1.0
  S  S5  1  0.06177821  0.62678789  0.60168542  1.0
  S  S5  1  0.07312336  0.61828546  0.72731540  1.0
  S  S5  1  0.07592869  0.62694551  0.84823197  1.0
  S  S5  1  0.06406115  0.63085202  0.95398461  1.0
  S  S5  1  0.06966720  0.80073339  0.05951049  1.0
  S  S5  1  0.07363808  0.79401144  0.17579491  1.0
  S  S5  1  0.06361783  0.79030195  0.28360934  1.0
  S  S5  1  0.07500504  0.79222491  0.39549052  1.0
  S  S5  1  0.06190317  0.78884957  0.51702231  1.0
  S  S5  1  0.06963629  0.79057041  0.63065227  1.0
  S  S5  1  0.06701049  0.78674898  0.73471207  1.0
  S  S5  1  0.07117456  0.78809674  0.83927757  1.0
  S  S5  1  0.07630409  0.78903245  0.94682540  1.0
  S  S5  1  0.07004285  0.96377588  0.06480625  1.0
  S  S5  1  0.07176146  0.95196151  0.18037750  1.0
  S  S5  1  0.06431135  0.96018996  0.29224794  1.0
  S  S5  1  0.06957275  0.95081707  0.39268487  1.0
  S  S5  1  0.07703321  0.95366009  0.51445630  1.0
  S  S5  1  0.06967096  0.95222491  0.61849822  1.0
  S  S5  1  0.07756594  0.97956377  0.73078280  1.0
  S  S5  1  0.06715111  0.94836621  0.83463561  1.0
  S  S5  1  0.06480041  0.95562601  0.95459476  1.0
  S  S5  1  0.27252530  0.12634377  0.06969368  1.0
  S  S5  1  0.26601503  0.12456931  0.17497241  1.0
  S  S5  1  0.26275625  0.11299044  0.28442204  1.0
  S  S5  1  0.25669443  0.11810776  0.40214716  1.0
  S  S5  1  0.26997941  0.12513022  0.51671888  1.0
  S  S5  1  0.26544330  0.12914890  0.61700389  1.0
  S  S5  1  0.27046511  0.12593416  0.73364141  1.0
  S  S5  1  0.26714949  0.12694270  0.84578732  1.0
  S  S5  1  0.26193787  0.13016211  0.94800165  1.0
  S  S5  1  0.26470007  0.29313877  0.06910111  1.0
  S  S5  1  0.27017844  0.29364732  0.17076435  1.0
  S  S5  1  0.26646570  0.27919254  0.28306231  1.0
  S  S5  1  0.26238234  0.29174771  0.41201093  1.0
  S  S5  1  0.27287469  0.27800931  0.50202275  1.0
  S  S5  1  0.26259596  0.28098853  0.61986143  1.0
  S  S5  1  0.27022200  0.28380038  0.84240737  1.0
  S  S5  1  0.27017935  0.29591912  0.95558359  1.0
  S  S5  1  0.27072944  0.45810573  0.06032040  1.0
  S  S5  1  0.26510863  0.45028566  0.18511850  1.0
  S  S5  1  0.26174523  0.46412568  0.28011722  1.0
  S  S5  1  0.27291123  0.46424760  0.40545231  1.0
  S  S5  1  0.26388077  0.45933278  0.50701736  1.0
  S  S5  1  0.26465384  0.45860014  0.62583304  1.0
  S  S5  1  0.26610888  0.46033596  0.72756686  1.0
  S  S5  1  0.26387190  0.45635972  0.84218171  1.0
  S  S5  1  0.27241371  0.45071926  0.96649080  1.0
  S  S5  1  0.26013261  0.62638752  0.06429172  1.0
  S  S5  1  0.26584334  0.62393453  0.18061666  1.0
  S  S5  1  0.27321113  0.62367638  0.28987382  1.0
  S  S5  1  0.26243889  0.62387893  0.40132582  1.0
  S  S5  1  0.25768271  0.62549227  0.50937272  1.0
  S  S5  1  0.27541919  0.62601671  0.62401349  1.0
  S  S5  1  0.26772456  0.62884528  0.73557374  1.0
  S  S5  1  0.26255712  0.62689193  0.85006155  1.0
  S  S5  1  0.27399131  0.62516653  0.95648548  1.0
  S  S5  1  0.27364742  0.78473806  0.06842827  1.0
  S  S5  1  0.25924078  0.79691310  0.17485990  1.0
  S  S5  1  0.26864839  0.78828790  0.28784309  1.0
  S  S5  1  0.27035493  0.79625579  0.40625578  1.0
  S  S5  1  0.26932237  0.78155783  0.51740037  1.0
  S  S5  1  0.26173155  0.78909773  0.61872917  1.0
  S  S5  1  0.26913770  0.78397983  0.72536476  1.0
  S  S5  1  0.26897256  0.78681304  0.85095401  1.0
  S  S5  1  0.26632989  0.78541053  0.96383934  1.0
  S  S5  1  0.27142603  0.97486283  0.05537415  1.0
  S  S5  1  0.27000224  0.96260305  0.17325366  1.0
  S  S5  1  0.26727281  0.96591147  0.29060700  1.0
  S  S5  1  0.26064694  0.95304424  0.39283778  1.0
  S  S5  1  0.26847515  0.96410607  0.50822325  1.0
  S  S5  1  0.26781636  0.95237712  0.62554681  1.0
  S  S5  1  0.27523365  0.95813596  0.74111702  1.0
  S  S5  1  0.26636383  0.94983432  0.84800339  1.0
  S  S5  1  0.26860139  0.95479717  0.95515094  1.0
  S  S5  1  0.46117041  0.11436505  0.06634861  1.0
  S  S5  1  0.47124843  0.13348001  0.18178482  1.0
  S  S5  1  0.47225188  0.13272911  0.29073498  1.0
  S  S5  1  0.46871991  0.13068423  0.40271282  1.0
  S  S5  1  0.46904098  0.11770058  0.50056613  1.0
  S  S5  1  0.47328544  0.12791218  0.62477205  1.0
  S  S5  1  0.47347185  0.11953049  0.72228929  1.0
  S  S5  1  0.47165526  0.13228686  0.84553870  1.0
  S  S5  1  0.46165980  0.12646432  0.94860716  1.0
  S  S5  1  0.46137992  0.29162002  0.06672953  1.0
  S  S5  1  0.46858766  0.29433222  0.17264939  1.0
  S  S5  1  0.46950774  0.28871387  0.28669579  1.0
  S  S5  1  0.47041997  0.29811333  0.40076983  1.0
  S  S5  1  0.47219519  0.29172888  0.51294479  1.0
  S  S5  1  0.47424094  0.30309934  0.62799475  1.0
  S  S5  1  0.46880500  0.29863063  0.73550158  1.0
  S  S5  1  0.46604867  0.29509072  0.83747454  1.0
  S  S5  1  0.47189712  0.30232431  0.95921388  1.0
  S  S5  1  0.47505378  0.45603247  0.06846367  1.0
  S  S5  1  0.47256539  0.45647678  0.18067952  1.0
  S  S5  1  0.47134991  0.46256048  0.28245614  1.0
  S  S5  1  0.47545057  0.46107497  0.39853432  1.0
  S  S5  1  0.46861067  0.45809712  0.50577396  1.0
  S  S5  1  0.47501655  0.46419273  0.62701190  1.0
  S  S5  1  0.47663419  0.45948791  0.72349280  1.0
  S  S5  1  0.47221946  0.46193268  0.85208550  1.0
  S  S5  1  0.47448200  0.45914847  0.95394731  1.0
  S  S5  1  0.47409038  0.60884774  0.06715928  1.0
  S  S5  1  0.47380095  0.62426381  0.17487405  1.0
  S  S5  1  0.47055192  0.63320981  0.29052337  1.0
  S  S5  1  0.46570015  0.63240392  0.40686661  1.0
  S  S5  1  0.46504963  0.64202601  0.51028533  1.0
  S  S5  1  0.47381475  0.62942576  0.61759819  1.0
  S  S5  1  0.46682588  0.62541192  0.72232543  1.0
  S  S5  1  0.47317850  0.61346659  0.84370211  1.0
  S  S5  1  0.46572666  0.62852138  0.94272784  1.0
  S  S5  1  0.46078193  0.78803609  0.06867044  1.0
  S  S5  1  0.47018627  0.79805641  0.17754325  1.0
  S  S5  1  0.46899143  0.78514736  0.28685003  1.0
  S  S5  1  0.46898257  0.77916588  0.39432901  1.0
  S  S5  1  0.47139318  0.79275867  0.50891083  1.0
  S  S5  1  0.46604752  0.78106322  0.60955132  1.0
  S  S5  1  0.46754895  0.80072516  0.73271212  1.0
  S  S5  1  0.47417905  0.78450789  0.84516446  1.0
  S  S5  1  0.46556704  0.95381743  0.06990001  1.0
  S  S5  1  0.46847870  0.94990397  0.17748949  1.0
  S  S5  1  0.46550473  0.94954627  0.28264528  1.0
  S  S5  1  0.47929355  0.96570928  0.38820517  1.0
  S  S5  1  0.46813964  0.95763075  0.50883986  1.0
  S  S5  1  0.46576572  0.96287837  0.62653459  1.0
  S  S5  1  0.47431684  0.96034166  0.73582629  1.0
  S  S5  1  0.46736025  0.94874254  0.83489250  1.0
  S  S5  1  0.46482816  0.95711308  0.94774439  1.0
  S  S5  1  0.66343943  0.12269792  0.07055103  1.0
  S  S5  1  0.67074904  0.11974645  0.17720819  1.0
  S  S5  1  0.66244712  0.11974647  0.27904050  1.0
  S  S5  1  0.67122086  0.12327945  0.39831871  1.0
  S  S5  1  0.67310342  0.11893289  0.51283114  1.0
  S  S5  1  0.67898916  0.11902498  0.61288669  1.0
  S  S5  1  0.66280058  0.12736409  0.74202266  1.0
  S  S5  1  0.67759338  0.13014027  0.84841150  1.0
  S  S5  1  0.67139917  0.12941139  0.95638782  1.0
  S  S5  1  0.66508740  0.30209094  0.07311816  1.0
  S  S5  1  0.66520110  0.29561191  0.18491452  1.0
  S  S5  1  0.67117014  0.29041731  0.29585400  1.0
  S  S5  1  0.67035471  0.28784676  0.39291314  1.0
  S  S5  1  0.65444732  0.30367083  0.50573080  1.0
  S  S5  1  0.67389223  0.28606716  0.62230938  1.0
  S  S5  1  0.67132514  0.28412802  0.73772382  1.0
  S  S5  1  0.66809035  0.29502887  0.85154456  1.0
  S  S5  1  0.67277236  0.29108975  0.96532201  1.0
  S  S5  1  0.66885709  0.45889994  0.06495322  1.0
  S  S5  1  0.66296152  0.45020663  0.17393697  1.0
  S  S5  1  0.66401922  0.45664403  0.29256653  1.0
  S  S5  1  0.66703784  0.45967155  0.39642225  1.0
  S  S5  1  0.68178538  0.46750919  0.50894024  1.0
  S  S5  1  0.67043888  0.45017866  0.62023219  1.0
  S  S5  1  0.66608276  0.46285296  0.72744397  1.0
  S  S5  1  0.67735581  0.45793528  0.83888677  1.0
  S  S5  1  0.66924054  0.46281575  0.95756781  1.0
  S  S5  1  0.66986165  0.63033937  0.07029163  1.0
  S  S5  1  0.67318102  0.62332286  0.17541618  1.0
  S  S5  1  0.66804489  0.62199419  0.28864225  1.0
  S  S5  1  0.66905193  0.63506916  0.39642819  1.0
  S  S5  1  0.66415414  0.62892855  0.51067845  1.0
  S  S5  1  0.66565362  0.62975826  0.61988041  1.0
  S  S5  1  0.67668957  0.61921947  0.72934755  1.0
  S  S5  1  0.66971731  0.63326054  0.83973598  1.0
  S  S5  1  0.67095960  0.61791861  0.95972647  1.0
  S  S5  1  0.66582595  0.79543118  0.06949595  1.0
  S  S5  1  0.66001447  0.79294018  0.17420122  1.0
  S  S5  1  0.67156868  0.78634903  0.28489978  1.0
  S  S5  1  0.67506300  0.79848711  0.39376317  1.0
  S  S5  1  0.67804788  0.77595784  0.51145764  1.0
  S  S5  1  0.66266774  0.79392608  0.61997490  1.0
  S  S5  1  0.66399972  0.78718041  0.72822656  1.0
  S  S5  1  0.66946133  0.79759674  0.85429130  1.0
  S  S5  1  0.66822686  0.79348460  0.96119431  1.0
  S  S5  1  0.66683881  0.95356917  0.07645696  1.0
  S  S5  1  0.66818256  0.95965557  0.16821975  1.0
  S  S5  1  0.66646501  0.96981438  0.29058744  1.0
  S  S5  1  0.66893681  0.96681247  0.39021741  1.0
  S  S5  1  0.66700948  0.97217399  0.51001672  1.0
  S  S5  1  0.66879601  0.96550706  0.62820107  1.0
  S  S5  1  0.66258239  0.96093701  0.74207440  1.0
  S  S5  1  0.66586958  0.95606753  0.84377919  1.0
  S  S5  1  0.67254632  0.94964765  0.93778029  1.0
  S  S5  1  0.87015579  0.13209301  0.06414529  1.0
  S  S5  1  0.86603275  0.12398420  0.18565693  1.0
  S  S5  1  0.86576236  0.12846950  0.28178350  1.0
  S  S5  1  0.86356007  0.13014110  0.40807972  1.0
  S  S5  1  0.87351809  0.11250484  0.50800157  1.0
  S  S5  1  0.87027273  0.12536244  0.61094408  1.0
  S  S5  1  0.86260411  0.12012222  0.73214289  1.0
  S  S5  1  0.85942483  0.12865167  0.84311577  1.0
  S  S5  1  0.86387210  0.12617775  0.94688995  1.0
  S  S5  1  0.86881998  0.28071140  0.05683131  1.0
  S  S5  1  0.86681330  0.28730902  0.17904867  1.0
  S  S5  1  0.86898686  0.30444513  0.28662241  1.0
  S  S5  1  0.85260862  0.27929008  0.39266282  1.0
  S  S5  1  0.88597636  0.29144325  0.51632674  1.0
  S  S5  1  0.87410821  0.28395901  0.61163337  1.0
  S  S5  1  0.87228657  0.27815779  0.73783614  1.0
  S  S5  1  0.86849563  0.29541464  0.84527498  1.0
  S  S5  1  0.87086137  0.29230235  0.95626714  1.0
  S  S5  1  0.86931007  0.44995910  0.06369921  1.0
  S  S5  1  0.87991197  0.46024436  0.18317815  1.0
  S  S5  1  0.86417193  0.45224614  0.28151181  1.0
  S  S5  1  0.86243152  0.44846293  0.40044803  1.0
  S  S5  1  0.86730367  0.46365970  0.50859825  1.0
  S  S5  1  0.85708250  0.46103222  0.61034092  1.0
  S  S5  1  0.87015030  0.45364052  0.73377753  1.0
  S  S5  1  0.86187314  0.46306854  0.84382707  1.0
  S  S5  1  0.86736166  0.44802275  0.96459480  1.0
  S  S5  1  0.86455309  0.62659969  0.06067617  1.0
  S  S5  1  0.88793806  0.62590906  0.17360753  1.0
  S  S5  1  0.87210408  0.62956325  0.29021593  1.0
  S  S5  1  0.86746493  0.62767997  0.39833168  1.0
  S  S5  1  0.86895373  0.62022168  0.50231797  1.0
  S  S5  1  0.87189185  0.62868863  0.62846242  1.0
  S  S5  1  0.86932220  0.62368751  0.72483227  1.0
  S  S5  1  0.86888269  0.62719139  0.83371063  1.0
  S  S5  1  0.87441679  0.62066808  0.95366523  1.0
  S  S5  1  0.87206420  0.79162217  0.07348815  1.0
  S  S5  1  0.87221914  0.79076424  0.15996045  1.0
  S  S5  1  0.87405318  0.78449044  0.29270653  1.0
  S  S5  1  0.87152713  0.79045729  0.40437008  1.0
  S  S5  1  0.87168115  0.79366437  0.50094055  1.0
  S  S5  1  0.86927893  0.78410552  0.61543074  1.0
  S  S5  1  0.86727710  0.80056986  0.73450129  1.0
  S  S5  1  0.87123299  0.79635382  0.83885809  1.0
  S  S5  1  0.86121021  0.78099572  0.95599191  1.0
  S  S5  1  0.87400578  0.96388635  0.06131797  1.0
  S  S5  1  0.87584693  0.97076287  0.18026515  1.0
  S  S5  1  0.87650483  0.96364547  0.28681547  1.0
  S  S5  1  0.86576226  0.94851963  0.39675528  1.0
  S  S5  1  0.86789769  0.95702697  0.50967569  1.0
  S  S5  1  0.85762936  0.96307282  0.62627528  1.0
  S  S5  1  0.87093227  0.95121923  0.73450998  1.0
  S  S5  1  0.86919287  0.96122001  0.85207074  1.0
  S  S5  1  0.86818904  0.95943770  0.95002541  1.0
  S  S6  1  0.13552121  0.04594200  0.04644621  1.0
  S  S6  1  0.12566254  0.03750956  0.14640344  1.0
  S  S6  1  0.12744989  0.04598234  0.26964449  1.0
  S  S6  1  0.13171720  0.05069690  0.38025869  1.0
  S  S6  1  0.12803872  0.03740838  0.48844903  1.0
  S  S6  1  0.12867253  0.04746445  0.60311772  1.0
  S  S6  1  0.12932412  0.03995344  0.71576369  1.0
  S  S6  1  0.13596685  0.03045171  0.82211190  1.0
  S  S6  1  0.13137675  0.04500145  0.93477099  1.0
  S  S6  1  0.13295283  0.20689171  0.04087737  1.0
  S  S6  1  0.13483487  0.21329717  0.15992813  1.0
  S  S6  1  0.13506250  0.20242150  0.26472504  1.0
  S  S6  1  0.13651062  0.21050060  0.37890593  1.0
  S  S6  1  0.12966250  0.21604702  0.48006807  1.0
  S  S6  1  0.13238808  0.20792808  0.59400013  1.0
  S  S6  1  0.13899063  0.19196413  0.71259377  1.0
  S  S6  1  0.13355820  0.20240122  0.82455460  1.0
  S  S6  1  0.12979934  0.21434446  0.95329354  1.0
  S  S6  1  0.13261033  0.37867493  0.03995527  1.0
  S  S6  1  0.13199232  0.37273066  0.16061974  1.0
  S  S6  1  0.12380090  0.36846894  0.27391611  1.0
  S  S6  1  0.13196831  0.38305393  0.38058121  1.0
  S  S6  1  0.13346493  0.37311703  0.48865648  1.0
  S  S6  1  0.13573458  0.37412858  0.60726860  1.0
  S  S6  1  0.13037159  0.36782327  0.70501189  1.0
  S  S6  1  0.13006266  0.38057121  0.81942188  1.0
  S  S6  1  0.13457324  0.37561286  0.93745741  1.0
  S  S6  1  0.12947382  0.54278007  0.05037973  1.0
  S  S6  1  0.13083428  0.53847354  0.14647704  1.0
  S  S6  1  0.13362345  0.53697205  0.26465361  1.0
  S  S6  1  0.12557404  0.54026687  0.39002472  1.0
  S  S6  1  0.13267746  0.53774784  0.48722576  1.0
  S  S6  1  0.12373754  0.53478821  0.59379860  1.0
  S  S6  1  0.13211419  0.54573256  0.71232252  1.0
  S  S6  1  0.13276633  0.53700521  0.81679011  1.0
  S  S6  1  0.12515590  0.53437260  0.93610915  1.0
  S  S6  1  0.14097283  0.70196189  0.04340419  1.0
  S  S6  1  0.13193289  0.70663589  0.15819126  1.0
  S  S6  1  0.12804752  0.70419429  0.26649573  1.0
  S  S6  1  0.13255027  0.71613580  0.38065142  1.0
  S  S6  1  0.12966118  0.71338775  0.49515837  1.0
  S  S6  1  0.12940563  0.70744538  0.59849592  1.0
  S  S6  1  0.13501813  0.70878470  0.70427788  1.0
  S  S6  1  0.13294763  0.71739603  0.83158817  1.0
  S  S6  1  0.12852819  0.70409527  0.94449270  1.0
  S  S6  1  0.13874133  0.87784299  0.03594085  1.0
  S  S6  1  0.12932090  0.86932654  0.16992865  1.0
  S  S6  1  0.12330397  0.88597310  0.26691413  1.0
  S  S6  1  0.12494082  0.88100352  0.38202867  1.0
  S  S6  1  0.12459874  0.87484643  0.49720344  1.0
  S  S6  1  0.12887367  0.88521919  0.59676560  1.0
  S  S6  1  0.12282249  0.87527508  0.70397763  1.0
  S  S6  1  0.13154346  0.87503129  0.81891079  1.0
  S  S6  1  0.14029880  0.87497581  0.93886350  1.0
  S  S6  1  0.33555636  0.05238037  0.03867931  1.0
  S  S6  1  0.32214631  0.05215532  0.15954298  1.0
  S  S6  1  0.33155057  0.04085571  0.26579688  1.0
  S  S6  1  0.33521913  0.03288301  0.38119989  1.0
  S  S6  1  0.33606856  0.04618849  0.48932227  1.0
  S  S6  1  0.33090671  0.04948861  0.60399177  1.0
  S  S6  1  0.33968225  0.03106439  0.71687195  1.0
  S  S6  1  0.32686997  0.04122309  0.83053916  1.0
  S  S6  1  0.32591604  0.05453771  0.94017777  1.0
  S  S6  1  0.33381156  0.20266297  0.04428775  1.0
  S  S6  1  0.32913090  0.20083615  0.16233520  1.0
  S  S6  1  0.32890132  0.20726533  0.26680785  1.0
  S  S6  1  0.32985079  0.21156056  0.37520848  1.0
  S  S6  1  0.33600367  0.20470769  0.48955574  1.0
  S  S6  1  0.47767720  0.11416983  0.39586025  1.0
  S  S6  1  0.33449379  0.20937011  0.71173647  1.0
  S  S6  1  0.32312098  0.20009131  0.82713218  1.0
  S  S6  1  0.33001753  0.20006403  0.92650107  1.0
  S  S6  1  0.33408963  0.38031712  0.03691185  1.0
  S  S6  1  0.33167913  0.37735984  0.15319875  1.0
  S  S6  1  0.33710902  0.37290259  0.25813766  1.0
  S  S6  1  0.32994831  0.38332250  0.37671841  1.0
  S  S6  1  0.32564179  0.37742298  0.49213630  1.0
  S  S6  1  0.33090537  0.37790275  0.59705479  1.0
  S  S6  1  0.32792457  0.37942611  0.70666969  1.0
  S  S6  1  0.33898197  0.38247928  0.81681277  1.0
  S  S6  1  0.33828757  0.37592592  0.94169809  1.0
  S  S6  1  0.33158610  0.54058870  0.04373362  1.0
  S  S6  1  0.31869110  0.54730701  0.15252640  1.0
  S  S6  1  0.33571165  0.55185075  0.26434310  1.0
  S  S6  1  0.32774186  0.54779792  0.37605341  1.0
  S  S6  1  0.33749598  0.53746154  0.49754463  1.0
  S  S6  1  0.32939369  0.54367584  0.60617230  1.0
  S  S6  1  0.33347354  0.54818039  0.70400300  1.0
  S  S6  1  0.32888716  0.54205139  0.81887489  1.0
  S  S6  1  0.33576637  0.53855023  0.92999714  1.0
  S  S6  1  0.33561497  0.70197296  0.03983783  1.0
  S  S6  1  0.33345743  0.71650892  0.15725840  1.0
  S  S6  1  0.32285335  0.71250036  0.26426118  1.0
  S  S6  1  0.33651507  0.70602358  0.38483074  1.0
  S  S6  1  0.32883420  0.70414320  0.47926669  1.0
  S  S6  1  0.32762717  0.70941182  0.60136931  1.0
  S  S6  1  0.33397342  0.71590252  0.71208947  1.0
  S  S6  1  0.33125813  0.71510394  0.93541383  1.0
  S  S6  1  0.32631139  0.87182344  0.03366572  1.0
  S  S6  1  0.32624360  0.86471638  0.15828958  1.0
  S  S6  1  0.33696823  0.86927603  0.26256705  1.0
  S  S6  1  0.33562837  0.87225688  0.37999843  1.0
  S  S6  1  0.33462989  0.87069218  0.48596018  1.0
  S  S6  1  0.32839201  0.86554841  0.60347301  1.0
  S  S6  1  0.33391967  0.87548481  0.94156132  1.0
  S  S6  1  0.52961611  0.04542398  0.04791287  1.0
  S  S6  1  0.52693066  0.04869268  0.15707591  1.0
  S  S6  1  0.53578546  0.03375200  0.26808668  1.0
  S  S6  1  0.52862062  0.03648658  0.38627713  1.0
  S  S6  1  0.53189496  0.03268103  0.48700242  1.0
  S  S6  1  0.53560795  0.03647790  0.59562069  1.0
  S  S6  1  0.53018592  0.04452186  0.81907775  1.0
  S  S6  1  0.53287057  0.04187876  0.93500762  1.0
  S  S6  1  0.51891499  0.20843016  0.04390123  1.0
  S  S6  1  0.53286871  0.20435570  0.15435734  1.0
  S  S6  1  0.53358137  0.21712884  0.26027432  1.0
  S  S6  1  0.53348174  0.21575520  0.38238386  1.0
  S  S6  1  0.53667372  0.20502664  0.49644745  1.0
  S  S6  1  0.52730333  0.20866872  0.59808584  1.0
  S  S6  1  0.52861262  0.19786090  0.70119342  1.0
  S  S6  1  0.53679476  0.19738851  0.82440853  1.0
  S  S6  1  0.52443493  0.20317087  0.93788275  1.0
  S  S6  1  0.53172891  0.37422650  0.05150127  1.0
  S  S6  1  0.52947388  0.38248298  0.15055282  1.0
  S  S6  1  0.52498030  0.37415941  0.26750673  1.0
  S  S6  1  0.52663474  0.37332022  0.38603348  1.0
  S  S6  1  0.52895111  0.36321945  0.48021569  1.0
  S  S6  1  0.54133690  0.38382506  0.59844745  1.0
  S  S6  1  0.53496666  0.37658434  0.71885341  1.0
  S  S6  1  0.52557222  0.36865475  0.83023067  1.0
  S  S6  1  0.52346540  0.37542467  0.93391207  1.0
  S  S6  1  0.53483521  0.54251766  0.04454748  1.0
  S  S6  1  0.52902026  0.53561443  0.15547309  1.0
  S  S6  1  0.53673643  0.53992710  0.27514838  1.0
  S  S6  1  0.53456933  0.54456610  0.37771860  1.0
  S  S6  1  0.52778284  0.55189717  0.49403354  1.0
  S  S6  1  0.53022418  0.55200380  0.60424841  1.0
  S  S6  1  0.52382856  0.53907177  0.71589368  1.0
  S  S6  1  0.53844611  0.55603243  0.82318370  1.0
  S  S6  1  0.53399642  0.53794591  0.92932215  1.0
  S  S6  1  0.52250400  0.71070602  0.05215408  1.0
  S  S6  1  0.53479337  0.70886345  0.16304243  1.0
  S  S6  1  0.54565087  0.70327345  0.25428833  1.0
  S  S6  1  0.53262933  0.71491915  0.37017211  1.0
  S  S6  1  0.53507727  0.70628243  0.49154580  1.0
  S  S6  1  0.52633205  0.70236785  0.59480562  1.0
  S  S6  1  0.53425235  0.70453506  0.71340258  1.0
  S  S6  1  0.53106731  0.70115355  0.82345885  1.0
  S  S6  1  0.53210318  0.71479821  0.94229478  1.0
  S  S6  1  0.52583054  0.87715871  0.03318962  1.0
  S  S6  1  0.53516954  0.88167580  0.14182572  1.0
  S  S6  1  0.52922657  0.86954222  0.26562731  1.0
  S  S6  1  0.52822455  0.87473458  0.38397765  1.0
  S  S6  1  0.52935373  0.86899255  0.48863463  1.0
  S  S6  1  0.52965574  0.87447317  0.59740181  1.0
  S  S6  1  0.53273032  0.88286900  0.70502149  1.0
  S  S6  1  0.53317007  0.88083884  0.82068081  1.0
  S  S6  1  0.53717126  0.87463146  0.92802268  1.0
  S  S6  1  0.72457210  0.04644132  0.04904046  1.0
  S  S6  1  0.73872928  0.04574721  0.15583598  1.0
  S  S6  1  0.73332779  0.04210524  0.26567746  1.0
  S  S6  1  0.72817746  0.03118412  0.37455774  1.0
  S  S6  1  0.73082190  0.02520285  0.48690678  1.0
  S  S6  1  0.73551571  0.04983865  0.59794938  1.0
  S  S6  1  0.72809940  0.03728642  0.70889194  1.0
  S  S6  1  0.73662436  0.05157850  0.81384780  1.0
  S  S6  1  0.72686899  0.03032961  0.93399959  1.0
  S  S6  1  0.72848196  0.21051695  0.04887903  1.0
  S  S6  1  0.73367701  0.19831971  0.15623779  1.0
  S  S6  1  0.72245459  0.21890018  0.26555706  1.0
  S  S6  1  0.72409831  0.20502211  0.37973228  1.0
  S  S6  1  0.73458054  0.21624420  0.49005376  1.0
  S  S6  1  0.72925344  0.21250118  0.60440417  1.0
  S  S6  1  0.73151297  0.21325894  0.70860948  1.0
  S  S6  1  0.73080007  0.19596506  0.83061466  1.0
  S  S6  1  0.72846537  0.21682371  0.93058147  1.0
  S  S6  1  0.73242877  0.37533305  0.04198778  1.0
  S  S6  1  0.73331431  0.38276875  0.16612625  1.0
  S  S6  1  0.73462784  0.36763836  0.25983311  1.0
  S  S6  1  0.73660582  0.36893264  0.38195493  1.0
  S  S6  1  0.73158866  0.38302276  0.49248867  1.0
  S  S6  1  0.73076735  0.38754028  0.60530621  1.0
  S  S6  1  0.73368935  0.37084714  0.70568790  1.0
  S  S6  1  0.72962468  0.36588140  0.82129073  1.0
  S  S6  1  0.73491854  0.38097305  0.93229276  1.0
  S  S6  1  0.74557703  0.54941346  0.04510343  1.0
  S  S6  1  0.73661824  0.53814113  0.15776078  1.0
  S  S6  1  0.72911997  0.53429442  0.27038998  1.0
  S  S6  1  0.73089053  0.54208209  0.37845220  1.0
  S  S6  1  0.69223648  0.77701319  0.69554925  1.0
  S  S6  1  0.72958725  0.53370165  0.60846603  1.0
  S  S6  1  0.73549945  0.54167585  0.70493905  1.0
  S  S6  1  0.73920175  0.53944734  0.81938692  1.0
  S  S6  1  0.73067477  0.54394893  0.93323706  1.0
  S  S6  1  0.71401018  0.70985202  0.05029171  1.0
  S  S6  1  0.72647168  0.71782748  0.16114295  1.0
  S  S6  1  0.73326023  0.70216379  0.26900780  1.0
  S  S6  1  0.73269189  0.70783493  0.38345487  1.0
  S  S6  1  0.72911915  0.70668079  0.48608158  1.0
  S  S6  1  0.72866733  0.70742082  0.59980854  1.0
  S  S6  1  0.72976661  0.71395539  0.72011810  1.0
  S  S6  1  0.72452071  0.71733413  0.82671806  1.0
  S  S6  1  0.72646155  0.70632637  0.93570236  1.0
  S  S6  1  0.72265779  0.87447226  0.04812916  1.0
  S  S6  1  0.72720394  0.86599680  0.15745973  1.0
  S  S6  1  0.74194407  0.87066081  0.26374675  1.0
  S  S6  1  0.72991909  0.88454996  0.36959983  1.0
  S  S6  1  0.73476313  0.87213492  0.48761576  1.0
  S  S6  1  0.72587703  0.87348530  0.59547737  1.0
  S  S6  1  0.72821262  0.86000034  0.70248921  1.0
  S  S6  1  0.73260100  0.88267918  0.84063639  1.0
  S  S6  1  0.73570354  0.87185271  0.92348184  1.0
  S  S6  1  0.93361463  0.03282974  0.04087020  1.0
  S  S6  1  0.93534324  0.04345656  0.15131743  1.0
  S  S6  1  0.92240128  0.04295792  0.26931733  1.0
  S  S6  1  0.93842761  0.02650501  0.37924390  1.0
  S  S6  1  0.93549671  0.03910996  0.48101456  1.0
  S  S6  1  0.92888484  0.03576151  0.59750462  1.0
  S  S6  1  0.93243707  0.04945004  0.70975832  1.0
  S  S6  1  0.93700914  0.04096305  0.82489050  1.0
  S  S6  1  0.93033539  0.04388622  0.93708992  1.0
  S  S6  1  0.93412406  0.20835307  0.02712483  1.0
  S  S6  1  0.93389306  0.19634642  0.15307225  1.0
  S  S6  1  0.91898239  0.21866705  0.26976182  1.0
  S  S6  1  0.92929348  0.21696571  0.38149781  1.0
  S  S6  1  0.93154198  0.21073733  0.48763013  1.0
  S  S6  1  0.92473122  0.21417924  0.60043567  1.0
  S  S6  1  0.92213807  0.21142013  0.71215587  1.0
  S  S6  1  0.93940587  0.20996704  0.81661157  1.0
  S  S6  1  0.92198316  0.21602509  0.93380901  1.0
  S  S6  1  0.92659771  0.37062168  0.05233837  1.0
  S  S6  1  0.93327538  0.38167505  0.15771339  1.0
  S  S6  1  0.92674340  0.38586924  0.26535895  1.0
  S  S6  1  0.93493580  0.38159619  0.37863413  1.0
  S  S6  1  0.92536255  0.37087419  0.49339953  1.0
  S  S6  1  0.93358495  0.38291302  0.60702763  1.0
  S  S6  1  0.92616256  0.38378288  0.70634405  1.0
  S  S6  1  0.93388935  0.38973179  0.82474646  1.0
  S  S6  1  0.92203993  0.37301729  0.94600127  1.0
  S  S6  1  0.92988613  0.54973988  0.04005621  1.0
  S  S6  1  0.92914438  0.54035436  0.16700385  1.0
  S  S6  1  0.92939268  0.53019595  0.28046286  1.0
  S  S6  1  0.93205557  0.54564953  0.36984791  1.0
  S  S6  1  0.93220682  0.54178285  0.48444818  1.0
  S  S6  1  0.93425458  0.53128536  0.59552092  1.0
  S  S6  1  0.93697034  0.53725081  0.70924615  1.0
  S  S6  1  0.93136930  0.53940380  0.82680751  1.0
  S  S6  1  0.93179852  0.53250049  0.93015291  1.0
  S  S6  1  0.92671137  0.70551403  0.04587657  1.0
  S  S6  1  0.93244906  0.69392718  0.16196098  1.0
  S  S6  1  0.93046637  0.70151702  0.27267590  1.0
  S  S6  1  0.92040848  0.69874689  0.39019690  1.0
  S  S6  1  0.93165039  0.70384805  0.49030207  1.0
  S  S6  1  0.93001357  0.70855099  0.60348640  1.0
  S  S6  1  0.92993142  0.71049121  0.71107262  1.0
  S  S6  1  0.92682205  0.70160420  0.83022907  1.0
  S  S6  1  0.93415200  0.71464265  0.93417607  1.0
  S  S6  1  0.93204660  0.87391486  0.05157119  1.0
  S  S6  1  0.92919845  0.86901331  0.27032814  1.0
  S  S6  1  0.93016050  0.87652047  0.38247330  1.0
  S  S6  1  0.92650386  0.87837422  0.49066774  1.0
  S  S6  1  0.93734394  0.87508712  0.60167396  1.0
  S  S6  1  0.92514680  0.87944603  0.71426511  1.0
  S  S6  1  0.92675031  0.88669918  0.82488105  1.0
  S  S6  1  0.92780680  0.87498265  0.93214805  1.0
  S  S7  1  0.03862738  0.04734398  0.01276189  1.0
  S  S7  1  0.03949087  0.03535024  0.12562609  1.0
  S  S7  1  0.03365199  0.04026463  0.23128022  1.0
  S  S7  1  0.03552871  0.04683725  0.33587558  1.0
  S  S7  1  0.03998797  0.04861902  0.45319987  1.0
  S  S7  1  0.02696991  0.04842244  0.56854820  1.0
  S  S7  1  0.03449646  0.04513965  0.68357085  1.0
  S  S7  1  0.03519302  0.03841865  0.78483971  1.0
  S  S7  1  0.03269699  0.05559711  0.89836194  1.0
  S  S7  1  0.03273279  0.21377590  0.00800557  1.0
  S  S7  1  0.03490122  0.20841838  0.12820783  1.0
  S  S7  1  0.02620441  0.22241064  0.23080906  1.0
  S  S7  1  0.03352327  0.20836303  0.33774712  1.0
  S  S7  1  0.03507980  0.20672530  0.45759678  1.0
  S  S7  1  0.02690060  0.20675265  0.56424066  1.0
  S  S7  1  0.03366879  0.21020620  0.67599370  1.0
  S  S7  1  0.02907316  0.21024919  0.78914357  1.0
  S  S7  1  0.03156361  0.22031448  0.90218402  1.0
  S  S7  1  0.04052520  0.37457714  0.01002520  1.0
  S  S7  1  0.02839683  0.37683675  0.11962621  1.0
  S  S7  1  0.02858285  0.36343888  0.24049515  1.0
  S  S7  1  0.02900666  0.38397348  0.34309799  1.0
  S  S7  1  0.03413791  0.37545202  0.45699209  1.0
  S  S7  1  0.02588267  0.38219322  0.56384637  1.0
  S  S7  1  0.03554118  0.36611352  0.67284596  1.0
  S  S7  1  0.03277602  0.37400448  0.79055507  1.0
  S  S7  1  0.03195630  0.38612091  0.90212088  1.0
  S  S7  1  0.02875996  0.53927428  0.01684743  1.0
  S  S7  1  0.02329018  0.54506872  0.11532267  1.0
  S  S7  1  0.03645751  0.53903703  0.23537737  1.0
  S  S7  1  0.03110568  0.53323024  0.34710986  1.0
  S  S7  1  0.02732128  0.54654499  0.44927573  1.0
  S  S7  1  0.03212844  0.54190433  0.56256234  1.0
  S  S7  1  0.03780802  0.54187073  0.67465892  1.0
  S  S7  1  0.03241145  0.53281054  0.80142036  1.0
  S  S7  1  0.14129997  0.52070701  0.67703844  1.0
  S  S7  1  0.03681296  0.70941578  0.00681229  1.0
  S  S7  1  0.02164457  0.69750348  0.12010358  1.0
  S  S7  1  0.03776105  0.69816025  0.24258409  1.0
  S  S7  1  0.03634623  0.70012796  0.33771156  1.0
  S  S7  1  0.02600552  0.71015415  0.45442714  1.0
  S  S7  1  0.03045259  0.70526324  0.56681499  1.0
  S  S7  1  0.03509915  0.70755340  0.67334616  1.0
  S  S7  1  0.03587282  0.70698669  0.79107308  1.0
  S  S7  1  0.03042129  0.71493455  0.90589490  1.0
  S  S7  1  0.03690218  0.87164248  0.00722720  1.0
  S  S7  1  0.03528190  0.87460712  0.12121371  1.0
  S  S7  1  0.02745084  0.88357472  0.23817837  1.0
  S  S7  1  0.03032602  0.87107353  0.33986583  1.0
  S  S7  1  0.03158515  0.87735304  0.45003597  1.0
  S  S7  1  0.02470533  0.87548460  0.57055401  1.0
  S  S7  1  0.03128859  0.87348289  0.67080077  1.0
  S  S7  1  0.02775499  0.88034412  0.78124080  1.0
  S  S7  1  0.03976982  0.87551756  0.89053747  1.0
  S  S7  1  0.23343227  0.04440574  0.00790531  1.0
  S  S7  1  0.23560921  0.03789559  0.12484225  1.0
  S  S7  1  0.23074637  0.03994137  0.23982602  1.0
  S  S7  1  0.23583008  0.03492906  0.34569362  1.0
  S  S7  1  0.24037253  0.04999473  0.44978026  1.0
  S  S7  1  0.23888748  0.04732486  0.56013317  1.0
  S  S7  1  0.23195676  0.04457268  0.67108982  1.0
  S  S7  1  0.23444498  0.05644890  0.79550266  1.0
  S  S7  1  0.23172868  0.03995485  0.90096642  1.0
  S  S7  1  0.22605150  0.20542803  0.99960369  1.0
  S  S7  1  0.23308942  0.20628003  0.12476635  1.0
  S  S7  1  0.23151792  0.20218376  0.23360312  1.0
  S  S7  1  0.22735820  0.21840472  0.33902800  1.0
  S  S7  1  0.22857329  0.20216677  0.44874073  1.0
  S  S7  1  0.23107008  0.20075598  0.56482104  1.0
  S  S7  1  0.23306676  0.20575595  0.66495683  1.0
  S  S7  1  0.23757943  0.20995518  0.78958398  1.0
  S  S7  1  0.22976149  0.21326667  0.90428677  1.0
  S  S7  1  0.23610178  0.37663487  0.00279435  1.0
  S  S7  1  0.23294271  0.37662702  0.11841166  1.0
  S  S7  1  0.22691696  0.37830376  0.23209805  1.0
  S  S7  1  0.22897243  0.38517464  0.34727992  1.0
  S  S7  1  0.23308930  0.38241274  0.45653281  1.0
  S  S7  1  0.22740495  0.37262977  0.56983113  1.0
  S  S7  1  0.23403933  0.37771530  0.67075882  1.0
  S  S7  1  0.23498045  0.37460447  0.79133438  1.0
  S  S7  1  0.22677564  0.38696103  0.90052582  1.0
  S  S7  1  0.22883551  0.54559796  0.01496249  1.0
  S  S7  1  0.23408545  0.53561444  0.12762378  1.0
  S  S7  1  0.22919838  0.54156875  0.22048067  1.0
  S  S7  1  0.22860336  0.53880515  0.34607655  1.0
  S  S7  1  0.22829910  0.53180111  0.45606148  1.0
  S  S7  1  0.22966980  0.53723429  0.56632118  1.0
  S  S7  1  0.22203514  0.54544144  0.67595988  1.0
  S  S7  1  0.22958557  0.54746335  0.78514821  1.0
  S  S7  1  0.23221127  0.54087871  0.91669412  1.0
  S  S7  1  0.23335820  0.70138890  0.01983268  1.0
  S  S7  1  0.23612685  0.70860687  0.11901800  1.0
  S  S7  1  0.22429844  0.71095265  0.22883373  1.0
  S  S7  1  0.22652700  0.71305080  0.35203687  1.0
  S  S7  1  0.22854234  0.71323626  0.45588923  1.0
  S  S7  1  0.23271135  0.70335298  0.56468784  1.0
  S  S7  1  0.22544534  0.70089525  0.67977845  1.0
  S  S7  1  0.22830263  0.70276612  0.78147882  1.0
  S  S7  1  0.22336309  0.69643087  0.89978206  1.0
  S  S7  1  0.21780332  0.87786743  0.01281766  1.0
  S  S7  1  0.23042515  0.87545102  0.11984573  1.0
  S  S7  1  0.23204421  0.87629931  0.23960007  1.0
  S  S7  1  0.23857222  0.88413910  0.33927720  1.0
  S  S7  1  0.23470273  0.87807881  0.45119866  1.0
  S  S7  1  0.22649513  0.87270822  0.56006612  1.0
  S  S7  1  0.22398440  0.87802599  0.67713384  1.0
  S  S7  1  0.23105772  0.88063787  0.78699980  1.0
  S  S7  1  0.23506537  0.87050419  0.89511879  1.0
  S  S7  1  0.43098983  0.05457240  0.01729011  1.0
  S  S7  1  0.43640158  0.03332000  0.12219034  1.0
  S  S7  1  0.43501915  0.05435346  0.22334033  1.0
  S  S7  1  0.43456911  0.04814214  0.34608273  1.0
  S  S7  1  0.42417892  0.04320745  0.45706901  1.0
  S  S7  1  0.43180754  0.03749944  0.56143890  1.0
  S  S7  1  0.43319728  0.03755177  0.67339585  1.0
  S  S7  1  0.43022287  0.04263868  0.79372436  1.0
  S  S7  1  0.42494901  0.03378892  0.89709662  1.0
  S  S7  1  0.42193309  0.21190186  0.99943044  1.0
  S  S7  1  0.43445136  0.21508035  0.12281456  1.0
  S  S7  1  0.42164785  0.20897898  0.22817150  1.0
  S  S7  1  0.42491933  0.21185851  0.34779909  1.0
  S  S7  1  0.43733846  0.20660072  0.45566985  1.0
  S  S7  1  0.43923384  0.22108072  0.57172891  1.0
  S  S7  1  0.42917293  0.20837747  0.67598498  1.0
  S  S7  1  0.43444267  0.20334668  0.78981688  1.0
  S  S7  1  0.43254935  0.21066801  0.89360908  1.0
  S  S7  1  0.43215409  0.38576412  0.00780000  1.0
  S  S7  1  0.43221667  0.36379337  0.12277744  1.0
  S  S7  1  0.43200116  0.37570861  0.23648920  1.0
  S  S7  1  0.42952699  0.38215703  0.33881206  1.0
  S  S7  1  0.43812519  0.37629376  0.45434313  1.0
  S  S7  1  0.42377214  0.36824877  0.56775537  1.0
  S  S7  1  0.42734154  0.38105374  0.67852114  1.0
  S  S7  1  0.42380601  0.37963033  0.78718206  1.0
  S  S7  1  0.43069156  0.38135509  0.89158343  1.0
  S  S7  1  0.42530558  0.54364744  0.00103618  1.0
  S  S7  1  0.42788898  0.54761945  0.12080778  1.0
  S  S7  1  0.42405854  0.54281711  0.23030583  1.0
  S  S7  1  0.42741401  0.56330357  0.34675314  1.0
  S  S7  1  0.42950489  0.54713181  0.45314841  1.0
  S  S7  1  0.42833335  0.54348845  0.56861513  1.0
  S  S7  1  0.43554152  0.55032801  0.68342356  1.0
  S  S7  1  0.43519619  0.54750269  0.79451939  1.0
  S  S7  1  0.43446361  0.53202135  0.90188831  1.0
  S  S7  1  0.43779417  0.70344911  0.00815348  1.0
  S  S7  1  0.43061995  0.70948990  0.11837652  1.0
  S  S7  1  0.43120587  0.71145588  0.22156173  1.0
  S  S7  1  0.43129330  0.70600580  0.33432534  1.0
  S  S7  1  0.43373661  0.71022718  0.45563166  1.0
  S  S7  1  0.43396768  0.71028776  0.56182532  1.0
  S  S7  1  0.43452929  0.71377373  0.67104148  1.0
  S  S7  1  0.43531572  0.70660832  0.79140453  1.0
  S  S7  1  0.43167858  0.70728677  0.90211470  1.0
  S  S7  1  0.42925692  0.88157232  0.01706858  1.0
  S  S7  1  0.42818889  0.87398261  0.11936214  1.0
  S  S7  1  0.43279336  0.88297017  0.22342834  1.0
  S  S7  1  0.42383952  0.87449184  0.34463493  1.0
  S  S7  1  0.42622086  0.87609959  0.45069756  1.0
  S  S7  1  0.42868959  0.88272422  0.56397550  1.0
  S  S7  1  0.42911918  0.87580162  0.68290495  1.0
  S  S7  1  0.43070522  0.87160375  0.79122100  1.0
  S  S7  1  0.43497736  0.88196393  0.89898353  1.0
  S  S7  1  0.63329218  0.04647528  0.01127944  1.0
  S  S7  1  0.63750694  0.04562958  0.13165543  1.0
  S  S7  1  0.63550141  0.02994488  0.23034129  1.0
  S  S7  1  0.62284336  0.03778019  0.34159952  1.0
  S  S7  1  0.63525687  0.03899187  0.46232718  1.0
  S  S7  1  0.62758254  0.03991161  0.55909210  1.0
  S  S7  1  0.63813150  0.05126901  0.67623591  1.0
  S  S7  1  0.62352819  0.04040009  0.78933115  1.0
  S  S7  1  0.62775063  0.05596886  0.90911989  1.0
  S  S7  1  0.62218950  0.20131378  0.01278742  1.0
  S  S7  1  0.62556895  0.20944610  0.12145830  1.0
  S  S7  1  0.62920550  0.21394267  0.24641507  1.0
  S  S7  1  0.63289731  0.20095924  0.34440593  1.0
  S  S7  1  0.62800379  0.22045400  0.45850878  1.0
  S  S7  1  0.63292947  0.21228543  0.56563549  1.0
  S  S7  1  0.63717054  0.20486014  0.68218460  1.0
  S  S7  1  0.63886763  0.20338140  0.78990579  1.0
  S  S7  1  0.63299953  0.20179616  0.89172133  1.0
  S  S7  1  0.62634714  0.37468318  0.01257034  1.0
  S  S7  1  0.62907477  0.38674571  0.12698929  1.0
  S  S7  1  0.63317987  0.37238123  0.23289146  1.0
  S  S7  1  0.63641920  0.38059721  0.34857436  1.0
  S  S7  1  0.62940403  0.37181880  0.44695883  1.0
  S  S7  1  0.63355861  0.36576155  0.56575996  1.0
  S  S7  1  0.62882195  0.37635344  0.68330399  1.0
  S  S7  1  0.63707911  0.37879940  0.78449749  1.0
  S  S7  1  0.63080850  0.36968416  0.89561447  1.0
  S  S7  1  0.63332834  0.53573974  0.00781387  1.0
  S  S7  1  0.62557939  0.54567164  0.11943619  1.0
  S  S7  1  0.61985550  0.55160547  0.23803068  1.0
  S  S7  1  0.62070410  0.54643434  0.35090201  1.0
  S  S7  1  0.62998915  0.54257335  0.45299738  1.0
  S  S7  1  0.63351465  0.54795233  0.55935690  1.0
  S  S7  1  0.62739468  0.54228507  0.67864523  1.0
  S  S7  1  0.63295411  0.54049541  0.78326234  1.0
  S  S7  1  0.63583865  0.53423436  0.89649649  1.0
  S  S7  1  0.63100893  0.71128484  0.11981027  1.0
  S  S7  1  0.63467952  0.71594293  0.22911876  1.0
  S  S7  1  0.63287481  0.70983099  0.34176488  1.0
  S  S7  1  0.62140373  0.71048816  0.45726096  1.0
  S  S7  1  0.63634795  0.70629501  0.56221113  1.0
  S  S7  1  0.62635429  0.69009273  0.67475118  1.0
  S  S7  1  0.64473097  0.71606553  0.78266252  1.0
  S  S7  1  0.62835058  0.70516348  0.90679518  1.0
  S  S7  1  0.64202537  0.87554630  0.01172502  1.0
  S  S7  1  0.63351791  0.87490354  0.12293589  1.0
  S  S7  1  0.63116049  0.87790789  0.22160823  1.0
  S  S7  1  0.62852633  0.86780042  0.34738097  1.0
  S  S7  1  0.62699808  0.86547944  0.44499249  1.0
  S  S7  1  0.63316339  0.86934960  0.56509182  1.0
  S  S7  1  0.63882209  0.87728255  0.67417705  1.0
  S  S7  1  0.62505333  0.87764629  0.78736348  1.0
  S  S7  1  0.63380843  0.86049844  0.90537316  1.0
  S  S7  1  0.82236929  0.03872111  0.01785974  1.0
  S  S7  1  0.81976935  0.04113857  0.11990345  1.0
  S  S7  1  0.83077642  0.04383373  0.23259323  1.0
  S  S7  1  0.82423040  0.04225866  0.34352251  1.0
  S  S7  1  0.83062301  0.05177375  0.46146207  1.0
  S  S7  1  0.84004157  0.04376008  0.57556867  1.0
  S  S7  1  0.82664665  0.03948113  0.67379567  1.0
  S  S7  1  0.82844437  0.04191794  0.78917761  1.0
  S  S7  1  0.83307160  0.05228086  0.89087355  1.0
  S  S7  1  0.82490314  0.19347712  0.00570289  1.0
  S  S7  1  0.82870262  0.20408425  0.11519648  1.0
  S  S7  1  0.83136468  0.20598080  0.22769222  1.0
  S  S7  1  0.83167410  0.20484610  0.34992150  1.0
  S  S7  1  0.83010314  0.20620421  0.45615788  1.0
  S  S7  1  0.82090657  0.21571639  0.57011957  1.0
  S  S7  1  0.82696083  0.20145461  0.67145440  1.0
  S  S7  1  0.82388124  0.19801067  0.78021029  1.0
  S  S7  1  0.81770503  0.20612119  0.89843399  1.0
  S  S7  1  0.83731542  0.38100526  0.00629103  1.0
  S  S7  1  0.82968365  0.38171103  0.11895714  1.0
  S  S7  1  0.83177161  0.37131354  0.23272483  1.0
  S  S7  1  0.83133780  0.37287722  0.34942793  1.0
  S  S7  1  0.82660519  0.37570171  0.46444754  1.0
  S  S7  1  0.83247407  0.37015410  0.56773726  1.0
  S  S7  1  0.84306121  0.37523865  0.68127818  1.0
  S  S7  1  0.83094587  0.37667580  0.78764043  1.0
  S  S7  1  0.82583770  0.37727510  0.89251637  1.0
  S  S7  1  0.82936023  0.55329713  0.00989691  1.0
  S  S7  1  0.82631097  0.54313217  0.11838480  1.0
  S  S7  1  0.83146221  0.53450874  0.23675778  1.0
  S  S7  1  0.83154223  0.53557128  0.34558153  1.0
  S  S7  1  0.84058083  0.53682470  0.45885992  1.0
  S  S7  1  0.83300642  0.54412027  0.57074790  1.0
  S  S7  1  0.82953715  0.54259345  0.67749074  1.0
  S  S7  1  0.82664800  0.54445792  0.78609255  1.0
  S  S7  1  0.84005685  0.53857693  0.89198644  1.0
  S  S7  1  0.83651336  0.70380546  0.00368044  1.0
  S  S7  1  0.83285463  0.71644001  0.12541612  1.0
  S  S7  1  0.82806571  0.70911546  0.23094588  1.0
  S  S7  1  0.83921135  0.70567283  0.34416144  1.0
  S  S7  1  0.83176492  0.70127476  0.45368257  1.0
  S  S7  1  0.83003837  0.71670979  0.56690732  1.0
  S  S7  1  0.82903133  0.70745046  0.67659085  1.0
  S  S7  1  0.83072573  0.71397566  0.79339740  1.0
  S  S7  1  0.82597419  0.71483062  0.90327015  1.0
  S  S7  1  0.83065678  0.86603264  0.01144709  1.0
  S  S7  1  0.82915304  0.87837581  0.12492186  1.0
  S  S7  1  0.83750512  0.86854391  0.24415818  1.0
  S  S7  1  0.83538947  0.87934538  0.35406035  1.0
  S  S7  1  0.83250672  0.88128854  0.45565803  1.0
  S  S7  1  0.83511755  0.88206703  0.57161212  1.0
  S  S7  1  0.82337184  0.87248240  0.68333802  1.0
  S  S7  1  0.83340681  0.87469928  0.79083169  1.0
  S  S7  1  0.82541011  0.87978481  0.90120101  1.0
  S  S8  1  0.00808559  0.12391153  0.08186962  1.0
  S  S8  1  0.00629077  0.12302955  0.20146566  1.0
  S  S8  1  0.99973970  0.11547290  0.30709004  1.0
  S  S8  1  0.00157081  0.11281085  0.41946886  1.0
  S  S8  1  0.01395054  0.11704213  0.51527692  1.0
  S  S8  1  0.00157560  0.12074187  0.64659120  1.0
  S  S8  1  0.00551461  0.13006089  0.75120904  1.0
  S  S8  1  0.01426182  0.12119164  0.85833336  1.0
  S  S8  1  0.00656571  0.12827308  0.97612257  1.0
  S  S8  1  0.01853513  0.28929015  0.08138117  1.0
  S  S8  1  0.01198685  0.29538857  0.20106381  1.0
  S  S8  1  0.00712153  0.28924872  0.31032962  1.0
  S  S8  1  0.00917289  0.29495340  0.41354856  1.0
  S  S8  1  0.01228827  0.28640368  0.52255947  1.0
  S  S8  1  0.99443942  0.28784862  0.64124071  1.0
  S  S8  1  0.00789172  0.28604570  0.75506366  1.0
  S  S8  1  0.00835148  0.30197117  0.86305502  1.0
  S  S8  1  0.00859955  0.30283053  0.96745933  1.0
  S  S8  1  0.00219407  0.46806352  0.08390381  1.0
  S  S8  1  0.01461817  0.46369541  0.20067376  1.0
  S  S8  1  0.00510637  0.45718571  0.30174851  1.0
  S  S8  1  0.00673302  0.44879968  0.41483464  1.0
  S  S8  1  0.01160922  0.45419317  0.52007907  1.0
  S  S8  1  0.00698132  0.46310638  0.63030769  1.0
  S  S8  1  0.01931822  0.45042954  0.74416930  1.0
  S  S8  1  0.01332158  0.46421964  0.86318193  1.0
  S  S8  1  0.00423815  0.45531782  0.96483533  1.0
  S  S8  1  0.00606153  0.62732857  0.07592001  1.0
  S  S8  1  0.99893266  0.63211334  0.19074091  1.0
  S  S8  1  0.01139461  0.62311922  0.30578979  1.0
  S  S8  1  0.01927285  0.61804443  0.40970732  1.0
  S  S8  1  0.00316332  0.63780148  0.52495710  1.0
  S  S8  1  0.01209048  0.60891540  0.63820624  1.0
  S  S8  1  0.00585876  0.63344807  0.75086586  1.0
  S  S8  1  0.00556471  0.63461136  0.86749377  1.0
  S  S8  1  0.01517673  0.62963888  0.96798972  1.0
  S  S8  1  0.00881858  0.78913144  0.08181650  1.0
  S  S8  1  0.00469148  0.79063436  0.20339752  1.0
  S  S8  1  0.00921228  0.78905139  0.29684058  1.0
  S  S8  1  0.00716174  0.79620131  0.41468904  1.0
  S  S8  1  0.00752275  0.79450873  0.52754417  1.0
  S  S8  1  0.01118093  0.79611959  0.63568425  1.0
  S  S8  1  0.00696811  0.79167166  0.75032941  1.0
  S  S8  1  0.01325706  0.78961718  0.85749711  1.0
  S  S8  1  0.00359905  0.78256978  0.96275788  1.0
  S  S8  1  0.00264921  0.95428291  0.08311596  1.0
  S  S8  1  0.00231164  0.95844092  0.19628570  1.0
  S  S8  1  0.00351717  0.95534082  0.29564335  1.0
  S  S8  1  0.00290481  0.96666780  0.41669499  1.0
  S  S8  1  0.01839105  0.95384954  0.53327150  1.0
  S  S8  1  0.00402155  0.95528428  0.65099431  1.0
  S  S8  1  0.00349122  0.96798636  0.74710353  1.0
  S  S8  1  0.00228368  0.94962919  0.85896179  1.0
  S  S8  1  0.00205119  0.95653529  0.95912660  1.0
  S  S8  1  0.20942930  0.11561602  0.08028384  1.0
  S  S8  1  0.20075180  0.13245805  0.18023016  1.0
  S  S8  1  0.20624748  0.12840335  0.30478808  1.0
  S  S8  1  0.20143555  0.11441568  0.41820046  1.0
  S  S8  1  0.20704260  0.11847984  0.52950986  1.0
  S  S8  1  0.20485087  0.12100060  0.63144612  1.0
  S  S8  1  0.20386862  0.12016031  0.74906597  1.0
  S  S8  1  0.21540112  0.11650253  0.85653152  1.0
  S  S8  1  0.20684101  0.12782632  0.97488311  1.0
  S  S8  1  0.20686443  0.28779073  0.08375970  1.0
  S  S8  1  0.19947227  0.27862295  0.20583125  1.0
  S  S8  1  0.20362689  0.28914963  0.30579534  1.0
  S  S8  1  0.20936364  0.29700782  0.41929580  1.0
  S  S8  1  0.20045895  0.29938876  0.52783725  1.0
  S  S8  1  0.20954714  0.29423720  0.62400803  1.0
  S  S8  1  0.20661202  0.28578618  0.74122859  1.0
  S  S8  1  0.20522441  0.29668858  0.85995315  1.0
  S  S8  1  0.20984397  0.28895125  0.97154959  1.0
  S  S8  1  0.20666630  0.46410764  0.08440017  1.0
  S  S8  1  0.20845784  0.45345840  0.19320912  1.0
  S  S8  1  0.20887038  0.45905934  0.30024144  1.0
  S  S8  1  0.20439238  0.46029458  0.40927283  1.0
  S  S8  1  0.20640311  0.46190374  0.63857132  1.0
  S  S8  1  0.20188267  0.46014951  0.75834485  1.0
  S  S8  1  0.21103272  0.45666278  0.86551044  1.0
  S  S8  1  0.21863883  0.46358585  0.96006871  1.0
  S  S8  1  0.21073927  0.63320580  0.06936943  1.0
  S  S8  1  0.21233829  0.62376424  0.19888704  1.0
  S  S8  1  0.20730477  0.62708813  0.30479411  1.0
  S  S8  1  0.21122500  0.62772011  0.40904732  1.0
  S  S8  1  0.20634642  0.62495997  0.53175696  1.0
  S  S8  1  0.21007786  0.62099933  0.63115735  1.0
  S  S8  1  0.21092864  0.62211125  0.75138021  1.0
  S  S8  1  0.20738150  0.63388304  0.85437458  1.0
  S  S8  1  0.21484262  0.63098331  0.96710129  1.0
  S  S8  1  0.20327517  0.80339440  0.07569475  1.0
  S  S8  1  0.20918953  0.79376776  0.19177671  1.0
  S  S8  1  0.21156064  0.78600523  0.31336218  1.0
  S  S8  1  0.20354382  0.79079100  0.40611111  1.0
  S  S8  1  0.21288243  0.80315362  0.53599333  1.0
  S  S8  1  0.21332478  0.78940870  0.63617603  1.0
  S  S8  1  0.20604799  0.78428606  0.74566838  1.0
  S  S8  1  0.21219674  0.78639208  0.84596501  1.0
  S  S8  1  0.20140473  0.79664457  0.96014144  1.0
  S  S8  1  0.20530371  0.95599944  0.08201637  1.0
  S  S8  1  0.20883120  0.96076820  0.19091241  1.0
  S  S8  1  0.20294470  0.96381732  0.29322684  1.0
  S  S8  1  0.21156021  0.96529380  0.42667203  1.0
  S  S8  1  0.20389491  0.95492522  0.52534602  1.0
  S  S8  1  0.20755385  0.96341104  0.63901238  1.0
  S  S8  1  0.20590333  0.95773660  0.75236131  1.0
  S  S8  1  0.20133887  0.95691155  0.86141031  1.0
  S  S8  1  0.20233495  0.93679071  0.97737909  1.0
  S  S8  1  0.40755779  0.11734917  0.08562437  1.0
  S  S8  1  0.40662008  0.11870436  0.19373603  1.0
  S  S8  1  0.40791736  0.12126946  0.29864147  1.0
  S  S8  1  0.40253729  0.12947498  0.40714501  1.0
  S  S8  1  0.40367867  0.12561541  0.53300167  1.0
  S  S8  1  0.40832347  0.12857835  0.63672337  1.0
  S  S8  1  0.41218513  0.13678781  0.74489361  1.0
  S  S8  1  0.40773009  0.12605572  0.86127461  1.0
  S  S8  1  0.40832104  0.12169197  0.96946135  1.0
  S  S8  1  0.41979944  0.29357628  0.07020369  1.0
  S  S8  1  0.40568860  0.29174816  0.19095655  1.0
  S  S8  1  0.40731834  0.29340827  0.30560359  1.0
  S  S8  1  0.40895217  0.29745011  0.40579971  1.0
  S  S8  1  0.40639868  0.29430868  0.52645080  1.0
  S  S8  1  0.40440358  0.28843071  0.63158205  1.0
  S  S8  1  0.41253573  0.28039878  0.74029763  1.0
  S  S8  1  0.40974995  0.29497126  0.84975900  1.0
  S  S8  1  0.41078733  0.29276483  0.97230867  1.0
  S  S8  1  0.40802170  0.46092183  0.08311675  1.0
  S  S8  1  0.41001588  0.45981819  0.19125619  1.0
  S  S8  1  0.40726241  0.45973363  0.30732913  1.0
  S  S8  1  0.41746842  0.46154845  0.41600007  1.0
  S  S8  1  0.41372769  0.46074533  0.51928035  1.0
  S  S8  1  0.40399905  0.46946018  0.63228080  1.0
  S  S8  1  0.41050630  0.45231821  0.75427296  1.0
  S  S8  1  0.40536273  0.45883695  0.85714573  1.0
  S  S8  1  0.41018041  0.45937699  0.97445631  1.0
  S  S8  1  0.41093124  0.62671462  0.08415903  1.0
  S  S8  1  0.41115640  0.62258192  0.18914206  1.0
  S  S8  1  0.41540840  0.62929691  0.30503598  1.0
  S  S8  1  0.40365784  0.61412060  0.41235036  1.0
  S  S8  1  0.40540023  0.62311203  0.52970082  1.0
  S  S8  1  0.41528516  0.63174981  0.63286750  1.0
  S  S8  1  0.41034668  0.62203522  0.73724977  1.0
  S  S8  1  0.40727830  0.63267005  0.85656590  1.0
  S  S8  1  0.41181964  0.62095057  0.97325005  1.0
  S  S8  1  0.40644390  0.80093459  0.07890453  1.0
  S  S8  1  0.40495229  0.80061896  0.18858035  1.0
  S  S8  1  0.40872251  0.78820111  0.30786662  1.0
  S  S8  1  0.41413431  0.78756295  0.41692019  1.0
  S  S8  1  0.41085081  0.79243445  0.53336501  1.0
  S  S8  1  0.41523832  0.78647932  0.64274988  1.0
  S  S8  1  0.41018914  0.79315117  0.74601309  1.0
  S  S8  1  0.40026007  0.79338852  0.86006576  1.0
  S  S8  1  0.41761815  0.78756544  0.96074566  1.0
  S  S8  1  0.40177331  0.96801407  0.07817213  1.0
  S  S8  1  0.41446852  0.95837140  0.18641339  1.0
  S  S8  1  0.41765102  0.96635047  0.30185556  1.0
  S  S8  1  0.41263623  0.95908202  0.41632786  1.0
  S  S8  1  0.41645790  0.94908813  0.52310215  1.0
  S  S8  1  0.40780583  0.96036833  0.62936543  1.0
  S  S8  1  0.41223751  0.95131279  0.74047046  1.0
  S  S8  1  0.40640803  0.96986526  0.87223248  1.0
  S  S8  1  0.41009881  0.95688418  0.97035139  1.0
  S  S8  1  0.60933194  0.13392133  0.07397621  1.0
  S  S8  1  0.61362303  0.11631996  0.18910292  1.0
  S  S8  1  0.60764717  0.12750134  0.30281370  1.0
  S  S8  1  0.60853396  0.12524603  0.40566137  1.0
  S  S8  1  0.61053120  0.12993585  0.53236860  1.0
  S  S8  1  0.61688097  0.12749945  0.64385476  1.0
  S  S8  1  0.60775036  0.11617589  0.75251254  1.0
  S  S8  1  0.61135186  0.12500381  0.85804966  1.0
  S  S8  1  0.61004628  0.12294630  0.97190885  1.0
  S  S8  1  0.60305620  0.28673982  0.07341824  1.0
  S  S8  1  0.61886283  0.29211129  0.19830325  1.0
  S  S8  1  0.60218462  0.29056132  0.30583719  1.0
  S  S8  1  0.61500486  0.28800119  0.41175200  1.0
  S  S8  1  0.60370640  0.29093288  0.51950073  1.0
  S  S8  1  0.60048747  0.29324043  0.63981921  1.0
  S  S8  1  0.60197365  0.28756317  0.74673339  1.0
  S  S8  1  0.61618048  0.27443377  0.86081252  1.0
  S  S8  1  0.61105098  0.28733414  0.96759785  1.0
  S  S8  1  0.60932236  0.45815304  0.08986541  1.0
  S  S8  1  0.60817243  0.46357287  0.19417465  1.0
  S  S8  1  0.61112519  0.45360383  0.30392915  1.0
  S  S8  1  0.60733269  0.45397594  0.41898275  1.0
  S  S8  1  0.59759867  0.46652798  0.51297063  1.0
  S  S8  1  0.60689256  0.46405921  0.62969389  1.0
  S  S8  1  0.60977540  0.46025353  0.74905685  1.0
  S  S8  1  0.60786358  0.45533651  0.85017515  1.0
  S  S8  1  0.60714089  0.46391532  0.96701575  1.0
  S  S8  1  0.60563204  0.63467124  0.07972058  1.0
  S  S8  1  0.60891289  0.62519583  0.19130522  1.0
  S  S8  1  0.61106098  0.63101935  0.30775483  1.0
  S  S8  1  0.61272901  0.61232910  0.40756133  1.0
  S  S8  1  0.60509161  0.62015754  0.52113337  1.0
  S  S8  1  0.61210090  0.62565045  0.63542127  1.0
  S  S8  1  0.60653394  0.62256563  0.74596003  1.0
  S  S8  1  0.61458715  0.61426676  0.86533044  1.0
  S  S8  1  0.61911054  0.63270726  0.96410812  1.0
  S  S8  1  0.60523113  0.79795309  0.07925676  1.0
  S  S8  1  0.60513389  0.79105232  0.18561182  1.0
  S  S8  1  0.60700972  0.78432825  0.30676844  1.0
  S  S8  1  0.60344491  0.79198000  0.41152370  1.0
  S  S8  1  0.60956728  0.79666961  0.52661603  1.0
  S  S8  1  0.60416387  0.78824048  0.64902036  1.0
  S  S8  1  0.61239519  0.79046293  0.74415049  1.0
  S  S8  1  0.60047648  0.79853065  0.85451680  1.0
  S  S8  1  0.61292048  0.79670083  0.97686832  1.0
  S  S8  1  0.61144829  0.95705669  0.08069776  1.0
  S  S8  1  0.60778249  0.95669833  0.18288102  1.0
  S  S8  1  0.59690173  0.96294993  0.30184790  1.0
  S  S8  1  0.61245273  0.95602428  0.41393818  1.0
  S  S8  1  0.61230041  0.96779575  0.52333342  1.0
  S  S8  1  0.60266738  0.96571308  0.63460299  1.0
  S  S8  1  0.60523758  0.95590106  0.74336359  1.0
  S  S8  1  0.61152271  0.95019177  0.85894473  1.0
  S  S8  1  0.60890660  0.95469188  0.97814465  1.0
  S  S8  1  0.81214468  0.12223472  0.08003296  1.0
  S  S8  1  0.81212450  0.12548687  0.19935621  1.0
  S  S8  1  0.81048664  0.12653850  0.30416384  1.0
  S  S8  1  0.82337999  0.11880384  0.40798337  1.0
  S  S8  1  0.80645466  0.13354589  0.51163547  1.0
  S  S8  1  0.79815536  0.12256812  0.64771457  1.0
  S  S8  1  0.80778701  0.11792803  0.75175524  1.0
  S  S8  1  0.81595672  0.12111432  0.86086391  1.0
  S  S8  1  0.80844257  0.12848157  0.96700019  1.0
  S  S8  1  0.81079826  0.29676777  0.08450169  1.0
  S  S8  1  0.79956092  0.28294328  0.18796817  1.0
  S  S8  1  0.80899536  0.29506874  0.29709203  1.0
  S  S8  1  0.80927866  0.29742033  0.41758285  1.0
  S  S8  1  0.80536442  0.28942526  0.51798808  1.0
  S  S8  1  0.81634808  0.29455058  0.62738529  1.0
  S  S8  1  0.81378369  0.29567317  0.75378276  1.0
  S  S8  1  0.80487132  0.28911738  0.85396263  1.0
  S  S8  1  0.81822944  0.28861872  0.96429724  1.0
  S  S8  1  0.80443027  0.45635512  0.08908594  1.0
  S  S8  1  0.80904204  0.46583805  0.19327619  1.0
  S  S8  1  0.80676022  0.45199086  0.31151555  1.0
  S  S8  1  0.81260710  0.46491573  0.41898355  1.0
  S  S8  1  0.80411495  0.45994559  0.53097539  1.0
  S  S8  1  0.81237434  0.45928601  0.64692385  1.0
  S  S8  1  0.81032074  0.46637611  0.74836791  1.0
  S  S8  1  0.80580459  0.46422968  0.86238415  1.0
  S  S8  1  0.80938963  0.45318560  0.97500641  1.0
  S  S8  1  0.80369887  0.62972931  0.07463615  1.0
  S  S8  1  0.80343136  0.62677703  0.19487568  1.0
  S  S8  1  0.80874175  0.62179284  0.30889667  1.0
  S  S8  1  0.80835304  0.62617646  0.41308651  1.0
  S  S8  1  0.80405206  0.63185452  0.52155487  1.0
  S  S8  1  0.81613386  0.61998094  0.63792559  1.0
  S  S8  1  0.80800720  0.62431484  0.75099202  1.0
  S  S8  1  0.81160278  0.62826072  0.85259421  1.0
  S  S8  1  0.80181259  0.61750795  0.96817054  1.0
  S  S8  1  0.81822026  0.79136750  0.09205420  1.0
  S  S8  1  0.80749324  0.79264001  0.19496722  1.0
  S  S8  1  0.80620717  0.79304945  0.29355840  1.0
  S  S8  1  0.80322136  0.78143478  0.41789462  1.0
  S  S8  1  0.80085389  0.80025505  0.52699471  1.0
  S  S8  1  0.81244959  0.78773252  0.63004744  1.0
  S  S8  1  0.80592409  0.79814099  0.75879786  1.0
  S  S8  1  0.81019787  0.78366237  0.85309524  1.0
  S  S8  1  0.80022995  0.79088082  0.96798997  1.0
  S  S8  1  0.80697801  0.95180282  0.07421883  1.0
  S  S8  1  0.80812984  0.96128041  0.18526874  1.0
  S  S8  1  0.81002489  0.96409332  0.29013829  1.0
  S  S8  1  0.81552615  0.96260543  0.41915220  1.0
  S  S8  1  0.80256353  0.96312222  0.52996891  1.0
  S  S8  1  0.80440734  0.96307796  0.63541415  1.0
  S  S8  1  0.80457726  0.95713818  0.74819431  1.0
  S  S8  1  0.80614934  0.95351624  0.86052920  1.0
  S  S8  1  0.81045454  0.95922170  0.96068965  1.0
  S  S9  1  0.10474159  0.11986470  0.09548435  1.0
  S  S9  1  0.10824855  0.12329514  0.19412349  1.0
  S  S9  1  0.10703669  0.12957221  0.29831082  1.0
  S  S9  1  0.10880904  0.12193012  0.42173463  1.0
  S  S9  1  0.11164929  0.12076857  0.52304235  1.0
  S  S9  1  0.10614036  0.13283031  0.64616270  1.0
  S  S9  1  0.10577482  0.12113774  0.74967561  1.0
  S  S9  1  0.10118197  0.12977444  0.86910257  1.0
  S  S9  1  0.10572732  0.12195394  0.97114115  1.0
  S  S9  1  0.10541168  0.28719399  0.08521020  1.0
  S  S9  1  0.11158586  0.29582411  0.19259856  1.0
  S  S9  1  0.10841787  0.29559774  0.30315902  1.0
  S  S9  1  0.10836598  0.29905029  0.41805504  1.0
  S  S9  1  0.09758619  0.27635225  0.53219291  1.0
  S  S9  1  0.10819175  0.29280881  0.64427612  1.0
  S  S9  1  0.10027424  0.28675816  0.75502653  1.0
  S  S9  1  0.11133359  0.29010382  0.85603213  1.0
  S  S9  1  0.10935717  0.29197776  0.96918047  1.0
  S  S9  1  0.09775726  0.46180873  0.08269247  1.0
  S  S9  1  0.10859204  0.45924323  0.19091968  1.0
  S  S9  1  0.10974607  0.45310253  0.30013286  1.0
  S  S9  1  0.09955524  0.45831364  0.42807151  1.0
  S  S9  1  0.10786479  0.46918178  0.53839132  1.0
  S  S9  1  0.11023741  0.46791228  0.64957078  1.0
  S  S9  1  0.11354431  0.44686938  0.75143275  1.0
  S  S9  1  0.10419691  0.46545830  0.86215983  1.0
  S  S9  1  0.11640792  0.45895122  0.97479220  1.0
  S  S9  1  0.10576971  0.62387683  0.08751933  1.0
  S  S9  1  0.10733012  0.62217181  0.19495734  1.0
  S  S9  1  0.11675093  0.63715253  0.30571348  1.0
  S  S9  1  0.11189825  0.61996375  0.41760874  1.0
  S  S9  1  0.10223089  0.63120450  0.53313906  1.0
  S  S9  1  0.11103198  0.63040401  0.63687459  1.0
  S  S9  1  0.10604043  0.62770872  0.75084002  1.0
  S  S9  1  0.10800659  0.62013462  0.87107599  1.0
  S  S9  1  0.11234535  0.63252618  0.97853448  1.0
  S  S9  1  0.10219913  0.78874930  0.08223342  1.0
  S  S9  1  0.10637563  0.79810193  0.18914496  1.0
  S  S9  1  0.10474634  0.78926668  0.30112071  1.0
  S  S9  1  0.10868220  0.78958612  0.42544464  1.0
  S  S9  1  0.10628652  0.79445880  0.53112629  1.0
  S  S9  1  0.09527174  0.78293548  0.64370015  1.0
  S  S9  1  0.10934718  0.79124889  0.75996708  1.0
  S  S9  1  0.11020591  0.80122009  0.85043623  1.0
  S  S9  1  0.11631725  0.78797285  0.97507987  1.0
  S  S9  1  0.11358463  0.94546745  0.08467572  1.0
  S  S9  1  0.11269623  0.95457930  0.20214355  1.0
  S  S9  1  0.11103665  0.95936252  0.31153981  1.0
  S  S9  1  0.11412309  0.96199885  0.42444959  1.0
  S  S9  1  0.10326039  0.96187409  0.53316543  1.0
  S  S9  1  0.11327072  0.95128828  0.64745876  1.0
  S  S9  1  0.10327102  0.97257342  0.74788297  1.0
  S  S9  1  0.10183521  0.95656595  0.86954348  1.0
  S  S9  1  0.10943248  0.96855115  0.97330773  1.0
  S  S9  1  0.30521398  0.12053169  0.08318891  1.0
  S  S9  1  0.30068480  0.12105268  0.19057352  1.0
  S  S9  1  0.31124926  0.13400526  0.30948499  1.0
  S  S9  1  0.30429574  0.12952805  0.41917505  1.0
  S  S9  1  0.31272634  0.11924817  0.52572866  1.0
  S  S9  1  0.31128515  0.12487670  0.64665954  1.0
  S  S9  1  0.30337406  0.12763827  0.75569878  1.0
  S  S9  1  0.29998635  0.12497919  0.85285172  1.0
  S  S9  1  0.31499783  0.11698393  0.97391560  1.0
  S  S9  1  0.30763553  0.28581320  0.09612764  1.0
  S  S9  1  0.30420691  0.29002529  0.19341117  1.0
  S  S9  1  0.30417547  0.29100364  0.31210712  1.0
  S  S9  1  0.30845941  0.28705190  0.41935462  1.0
  S  S9  1  0.30083561  0.29886543  0.52774416  1.0
  S  S9  1  0.30540121  0.27982662  0.63885128  1.0
  S  S9  1  0.31605852  0.29538706  0.75876261  1.0
  S  S9  1  0.30824215  0.27572606  0.86421244  1.0
  S  S9  1  0.30866450  0.29711559  0.97474433  1.0
  S  S9  1  0.30380705  0.45772981  0.08419136  1.0
  S  S9  1  0.31027415  0.45774338  0.19177367  1.0
  S  S9  1  0.31049009  0.45383825  0.30655664  1.0
  S  S9  1  0.30534402  0.45977656  0.41191991  1.0
  S  S9  1  0.30782029  0.46490655  0.53102164  1.0
  S  S9  1  0.30432804  0.45610877  0.64322196  1.0
  S  S9  1  0.31045713  0.46748304  0.74386727  1.0
  S  S9  1  0.30897514  0.45946123  0.86346972  1.0
  S  S9  1  0.30943443  0.45693687  0.96950419  1.0
  S  S9  1  0.30872597  0.62894996  0.08579785  1.0
  S  S9  1  0.31294847  0.62355571  0.19967524  1.0
  S  S9  1  0.29976359  0.63864258  0.30703822  1.0
  S  S9  1  0.30522287  0.62338321  0.41422114  1.0
  S  S9  1  0.30182651  0.62524971  0.53112156  1.0
  S  S9  1  0.30877764  0.62479350  0.64115855  1.0
  S  S9  1  0.30165398  0.62203493  0.75360064  1.0
  S  S9  1  0.30497049  0.62677751  0.86309689  1.0
  S  S9  1  0.30694651  0.62626099  0.97758688  1.0
  S  S9  1  0.31119460  0.80373117  0.09076033  1.0
  S  S9  1  0.30026930  0.78507263  0.19567074  1.0
  S  S9  1  0.30385135  0.79404239  0.31098257  1.0
  S  S9  1  0.30524620  0.79890445  0.42730950  1.0
  S  S9  1  0.29861496  0.78297361  0.53647635  1.0
  S  S9  1  0.31200238  0.79472472  0.64167070  1.0
  S  S9  1  0.30714522  0.79493125  0.75368344  1.0
  S  S9  1  0.31418844  0.78752209  0.86393135  1.0
  S  S9  1  0.31210475  0.79266696  0.97861095  1.0
  S  S9  1  0.31094799  0.95574867  0.08049627  1.0
  S  S9  1  0.30392690  0.95173988  0.18705765  1.0
  S  S9  1  0.31311031  0.94685908  0.31841662  1.0
  S  S9  1  0.30502517  0.95663987  0.41113770  1.0
  S  S9  1  0.30957984  0.95674611  0.53083278  1.0
  S  S9  1  0.30373051  0.96125854  0.63712347  1.0
  S  S9  1  0.31018435  0.96373933  0.76019597  1.0
  S  S9  1  0.31168324  0.95888014  0.86378993  1.0
  S  S9  1  0.30922462  0.96299788  0.97089039  1.0
  S  S9  1  0.51216902  0.11929948  0.08854096  1.0
  S  S9  1  0.51036292  0.12091431  0.18876576  1.0
  S  S9  1  0.50619608  0.10907390  0.30719207  1.0
  S  S9  1  0.50142851  0.14394051  0.42515530  1.0
  S  S9  1  0.50802044  0.13310616  0.53434012  1.0
  S  S9  1  0.50185135  0.12119495  0.64721832  1.0
  S  S9  1  0.50286479  0.12740505  0.75639743  1.0
  S  S9  1  0.50635881  0.12592675  0.86836388  1.0
  S  S9  1  0.51157435  0.12772664  0.97487389  1.0
  S  S9  1  0.51059221  0.27936797  0.09409261  1.0
  S  S9  1  0.50699824  0.28719525  0.20043177  1.0
  S  S9  1  0.51051270  0.28572625  0.30864565  1.0
  S  S9  1  0.50784638  0.29149682  0.42823446  1.0
  S  S9  1  0.50755938  0.29087635  0.52679423  1.0
  S  S9  1  0.50354222  0.29405179  0.63905214  1.0
  S  S9  1  0.50672182  0.29287229  0.75306912  1.0
  S  S9  1  0.50833376  0.29246558  0.86723535  1.0
  S  S9  1  0.52084461  0.29914559  0.97297115  1.0
  S  S9  1  0.51372808  0.45192224  0.08297131  1.0
  S  S9  1  0.51118892  0.46244519  0.20044306  1.0
  S  S9  1  0.50471310  0.45478376  0.30899212  1.0
  S  S9  1  0.50640051  0.46373685  0.41787833  1.0
  S  S9  1  0.50612832  0.44844198  0.53526767  1.0
  S  S9  1  0.50926938  0.44442567  0.64403500  1.0
  S  S9  1  0.50565724  0.46305404  0.75214972  1.0
  S  S9  1  0.50364439  0.46885257  0.87239539  1.0
  S  S9  1  0.50673305  0.46060041  0.97244317  1.0
  S  S9  1  0.49914083  0.63301666  0.08171049  1.0
  S  S9  1  0.51401780  0.62924182  0.19873074  1.0
  S  S9  1  0.50745574  0.62926745  0.30321011  1.0
  S  S9  1  0.51432170  0.62587125  0.42753186  1.0
  S  S9  1  0.50704940  0.62586697  0.53193735  1.0
  S  S9  1  0.51053554  0.63601705  0.63922508  1.0
  S  S9  1  0.50704267  0.62609500  0.74135569  1.0
  S  S9  1  0.50488978  0.62201985  0.87820232  1.0
  S  S9  1  0.50895034  0.62800227  0.96694505  1.0
  S  S9  1  0.50734685  0.79736174  0.09976300  1.0
  S  S9  1  0.50424383  0.78062098  0.19294346  1.0
  S  S9  1  0.50380937  0.78703092  0.31322071  1.0
  S  S9  1  0.50937125  0.78480155  0.42710254  1.0
  S  S9  1  0.51711045  0.78129367  0.53691431  1.0
  S  S9  1  0.50681073  0.78593561  0.63368508  1.0
  S  S9  1  0.50539960  0.78849178  0.75352558  1.0
  S  S9  1  0.51837352  0.78857656  0.85617218  1.0
  S  S9  1  0.50601168  0.79800607  0.97359539  1.0
  S  S9  1  0.51091232  0.95936756  0.08638870  1.0
  S  S9  1  0.51558378  0.95244338  0.19149849  1.0
  S  S9  1  0.50312310  0.96043422  0.30856881  1.0
  S  S9  1  0.51120513  0.95787067  0.41832350  1.0
  S  S9  1  0.50930322  0.96865431  0.52416933  1.0
  S  S9  1  0.50306638  0.95858336  0.65268141  1.0
  S  S9  1  0.50231009  0.95827252  0.74794327  1.0
  S  S9  1  0.50964780  0.94577470  0.85818960  1.0
  S  S9  1  0.51404178  0.95839004  0.97088477  1.0
  S  S9  1  0.70743130  0.12461492  0.08911012  1.0
  S  S9  1  0.69729722  0.11869309  0.19196574  1.0
  S  S9  1  0.71080221  0.12496161  0.31612431  1.0
  S  S9  1  0.71179926  0.12289557  0.41911903  1.0
  S  S9  1  0.71411936  0.13371944  0.52997886  1.0
  S  S9  1  0.70274248  0.11221869  0.63016701  1.0
  S  S9  1  0.71001674  0.12774983  0.74904353  1.0
  S  S9  1  0.71415731  0.12374099  0.86062850  1.0
  S  S9  1  0.71350670  0.13131843  0.97466342  1.0
  S  S9  1  0.71024363  0.29558291  0.09790361  1.0
  S  S9  1  0.70700592  0.28448852  0.20057347  1.0
  S  S9  1  0.70797059  0.29234999  0.30810772  1.0
  S  S9  1  0.69971576  0.29325685  0.41743267  1.0
  S  S9  1  0.70611706  0.28924422  0.53028648  1.0
  S  S9  1  0.70896022  0.29148838  0.64790106  1.0
  S  S9  1  0.71143496  0.29122194  0.74708283  1.0
  S  S9  1  0.71055812  0.28975083  0.86290333  1.0
  S  S9  1  0.70107683  0.29418276  0.98906987  1.0
  S  S9  1  0.70513251  0.46212114  0.09284139  1.0
  S  S9  1  0.70504918  0.44357888  0.20095492  1.0
  S  S9  1  0.70805594  0.46022744  0.30857678  1.0
  S  S9  1  0.71344999  0.45774002  0.43121307  1.0
  S  S9  1  0.71114482  0.46448704  0.53053578  1.0
  S  S9  1  0.70921181  0.44805387  0.63846844  1.0
  S  S9  1  0.71303989  0.45792648  0.74659533  1.0
  S  S9  1  0.70424428  0.45412160  0.86362133  1.0
  S  S9  1  0.70349546  0.46699101  0.97607848  1.0
  S  S9  1  0.70069328  0.63434563  0.08580619  1.0
  S  S9  1  0.71018603  0.62686616  0.19944024  1.0
  S  S9  1  0.70594513  0.62701231  0.30746493  1.0
  S  S9  1  0.70946771  0.62387007  0.41780912  1.0
  S  S9  1  0.70036121  0.62496834  0.53172341  1.0
  S  S9  1  0.71688999  0.62791638  0.63766398  1.0
  S  S9  1  0.70259451  0.62662705  0.74866471  1.0
  S  S9  1  0.70482204  0.62044852  0.86204362  1.0
  S  S9  1  0.71133488  0.61289415  0.98199603  1.0
  S  S9  1  0.70664091  0.78780901  0.09089093  1.0
  S  S9  1  0.70663035  0.78529777  0.18887768  1.0
  S  S9  1  0.71113181  0.79628878  0.30602802  1.0
  S  S9  1  0.71425635  0.79188466  0.42662215  1.0
  S  S9  1  0.70288061  0.78509736  0.52770230  1.0
  S  S9  1  0.70566529  0.79866969  0.64320887  1.0
  S  S9  1  0.70386969  0.79173456  0.75039075  1.0
  S  S9  1  0.70364746  0.79118153  0.86279380  1.0
  S  S9  1  0.70188831  0.78503263  0.97801386  1.0
  S  S9  1  0.70977379  0.96407446  0.08451004  1.0
  S  S9  1  0.70222978  0.95484181  0.20276215  1.0
  S  S9  1  0.69967043  0.96712272  0.30223106  1.0
  S  S9  1  0.71155232  0.95212503  0.41614718  1.0
  S  S9  1  0.69738862  0.96961154  0.53363094  1.0
  S  S9  1  0.71082356  0.95533481  0.63654156  1.0
  S  S9  1  0.71153661  0.95101372  0.75181193  1.0
  S  S9  1  0.70141608  0.95908742  0.85339246  1.0
  S  S9  1  0.70026862  0.95310233  0.97829283  1.0
  S  S9  1  0.90500754  0.13098405  0.09422943  1.0
  S  S9  1  0.90611919  0.11600537  0.20242645  1.0
  S  S9  1  0.89996416  0.11950469  0.29901257  1.0
  S  S9  1  0.91246833  0.12848048  0.42820323  1.0
  S  S9  1  0.90545715  0.11998707  0.52764151  1.0
  S  S9  1  0.90149977  0.13385629  0.66020653  1.0
  S  S9  1  0.90404657  0.12860588  0.75187532  1.0
  S  S9  1  0.90986527  0.13144703  0.85760724  1.0
  S  S9  1  0.90527077  0.13231980  0.97771592  1.0
  S  S9  1  0.90929405  0.29476750  0.08936657  1.0
  S  S9  1  0.91343981  0.29625250  0.19689037  1.0
  S  S9  1  0.90942244  0.29125644  0.30421375  1.0
  S  S9  1  0.90740226  0.29097426  0.41013987  1.0
  S  S9  1  0.91152865  0.29741263  0.53346197  1.0
  S  S9  1  0.91207665  0.29059646  0.63881110  1.0
  S  S9  1  0.91239714  0.28522520  0.74676657  1.0
  S  S9  1  0.90989721  0.29422652  0.86889917  1.0
  S  S9  1  0.89912109  0.29107202  0.96878766  1.0
  S  S9  1  0.91192982  0.46644764  0.08880340  1.0
  S  S9  1  0.90487510  0.45377906  0.19492355  1.0
  S  S9  1  0.90346092  0.45736454  0.30418803  1.0
  S  S9  1  0.90076250  0.46064912  0.42188252  1.0
  S  S9  1  0.91614388  0.45569785  0.52020460  1.0
  S  S9  1  0.91173016  0.46397765  0.64783127  1.0
  S  S9  1  0.91500518  0.46737106  0.74740200  1.0
  S  S9  1  0.91538834  0.45633762  0.86818219  1.0
  S  S9  1  0.90895544  0.45241529  0.98126458  1.0
  S  S9  1  0.90538304  0.63630848  0.08189839  1.0
  S  S9  1  0.90264556  0.62096720  0.20531060  1.0
  S  S9  1  0.89983619  0.63055495  0.31825812  1.0
  S  S9  1  0.90681441  0.62260853  0.41982406  1.0
  S  S9  1  0.90205669  0.64111160  0.53414826  1.0
  S  S9  1  0.90156692  0.62008920  0.64258680  1.0
  S  S9  1  0.90119795  0.61584796  0.75432229  1.0
  S  S9  1  0.90895042  0.63066254  0.86096436  1.0
  S  S9  1  0.90628959  0.62531435  0.98034827  1.0
  S  S9  1  0.90138594  0.78693699  0.08399797  1.0
  S  S9  1  0.90645069  0.79133527  0.19703103  1.0
  S  S9  1  0.91102488  0.78094198  0.29955519  1.0
  S  S9  1  0.90433920  0.79692060  0.41583791  1.0
  S  S9  1  0.90745491  0.79244625  0.53222169  1.0
  S  S9  1  0.91547070  0.79589277  0.64704401  1.0
  S  S9  1  0.90702700  0.80063122  0.75311225  1.0
  S  S9  1  0.89789861  0.80662309  0.86408488  1.0
  S  S9  1  0.91030474  0.78516542  0.98691152  1.0
  S  S9  1  0.90369990  0.95598956  0.07772702  1.0
  S  S9  1  0.90948005  0.95662064  0.18875915  1.0
  S  S9  1  0.90732267  0.95891005  0.30692985  1.0
  S  S9  1  0.89856973  0.96010249  0.41248442  1.0
  S  S9  1  0.91209917  0.95495430  0.53555247  1.0
  S  S9  1  0.90773030  0.95873118  0.64856274  1.0
  S  S9  1  0.90359001  0.95166683  0.75574897  1.0
  S  S9  1  0.90109998  0.95347370  0.85523209  1.0
  S  S9  1  0.91341015  0.95223322  0.97138077  1.0
  S  S10  1  0.08589977  0.03932183  0.02427698  1.0
  S  S10  1  0.09646346  0.03362410  0.13289362  1.0
  S  S10  1  0.09944262  0.04800030  0.24358597  1.0
  S  S10  1  0.09263967  0.05405966  0.35226345  1.0
  S  S10  1  0.08274864  0.03840516  0.46904586  1.0
  S  S10  1  0.08833526  0.04761003  0.58175849  1.0
  S  S10  1  0.08932256  0.03838756  0.68765708  1.0
  S  S10  1  0.09648221  0.03879185  0.79633589  1.0
  S  S10  1  0.09714202  0.03998508  0.90653746  1.0
  S  S10  1  0.10089078  0.21204780  0.02530746  1.0
  S  S10  1  0.09128242  0.20662779  0.13452863  1.0
  S  S10  1  0.09097426  0.20474566  0.24671486  1.0
  S  S10  1  0.08929735  0.20969279  0.35826102  1.0
  S  S10  1  0.08884308  0.20780513  0.47245723  1.0
  S  S10  1  0.08107548  0.21185100  0.57393137  1.0
  S  S10  1  0.09004915  0.19111801  0.69480322  1.0
  S  S10  1  0.08864458  0.20529257  0.80332713  1.0
  S  S10  1  0.08250133  0.20871089  0.91747526  1.0
  S  S10  1  0.09320965  0.37260388  0.02527970  1.0
  S  S10  1  0.09196313  0.37961481  0.14300235  1.0
  S  S10  1  0.09028903  0.37640858  0.24364165  1.0
  S  S10  1  0.09442030  0.37779932  0.35748041  1.0
  S  S10  1  0.09493105  0.37501942  0.46923820  1.0
  S  S10  1  0.08794503  0.37604619  0.57746337  1.0
  S  S10  1  0.09668164  0.36987011  0.69318651  1.0
  S  S10  1  0.09103891  0.37662026  0.80251579  1.0
  S  S10  1  0.08825635  0.38165441  0.90911229  1.0
  S  S10  1  0.09554787  0.53133400  0.02348188  1.0
  S  S10  1  0.09997403  0.53999088  0.13669213  1.0
  S  S10  1  0.10034059  0.54079775  0.24868851  1.0
  S  S10  1  0.09535849  0.53327284  0.35574445  1.0
  S  S10  1  0.09298834  0.53195773  0.47696093  1.0
  S  S10  1  0.09611619  0.54536250  0.58780075  1.0
  S  S10  1  0.09595060  0.54026805  0.68283186  1.0
  S  S10  1  0.08893924  0.53769856  0.80620370  1.0
  S  S10  1  0.09274384  0.53214259  0.91865657  1.0
  S  S10  1  0.09897648  0.71731027  0.01890116  1.0
  S  S10  1  0.09394535  0.70221074  0.14672885  1.0
  S  S10  1  0.09249265  0.70608118  0.24425913  1.0
  S  S10  1  0.09400758  0.71147025  0.46052351  1.0
  S  S10  1  0.09931345  0.71119829  0.58817564  1.0
  S  S10  1  0.10088022  0.70772851  0.69638955  1.0
  S  S10  1  0.08946556  0.70548782  0.81139763  1.0
  S  S10  1  0.08865023  0.70952862  0.90900016  1.0
  S  S10  1  0.08906707  0.87192693  0.03293774  1.0
  S  S10  1  0.09490484  0.88012173  0.12632542  1.0
  S  S10  1  0.09251297  0.87267297  0.24995932  1.0
  S  S10  1  0.10435391  0.86045624  0.36056457  1.0
  S  S10  1  0.10334678  0.87189853  0.47031613  1.0
  S  S10  1  0.09571759  0.86188392  0.58206094  1.0
  S  S10  1  0.08837585  0.88745829  0.69059273  1.0
  S  S10  1  0.08879382  0.88015077  0.80549140  1.0
  S  S10  1  0.09681270  0.88662270  0.91075699  1.0
  S  S10  1  0.30092181  0.05308875  0.02086975  1.0
  S  S10  1  0.28898701  0.04195396  0.13507908  1.0
  S  S10  1  0.30087198  0.03641069  0.24861036  1.0
  S  S10  1  0.28851852  0.04232657  0.37005410  1.0
  S  S10  1  0.30144102  0.04396955  0.47293017  1.0
  S  S10  1  0.29469378  0.03981715  0.59105000  1.0
  S  S10  1  0.29892749  0.04309255  0.69054112  1.0
  S  S10  1  0.29158139  0.04372772  0.80264244  1.0
  S  S10  1  0.29626036  0.04407983  0.91057526  1.0
  S  S10  1  0.28661585  0.21436119  0.01875732  1.0
  S  S10  1  0.29087791  0.20481968  0.12763806  1.0
  S  S10  1  0.29388863  0.20758006  0.24380378  1.0
  S  S10  1  0.30274971  0.19354394  0.35368639  1.0
  S  S10  1  0.28946075  0.20006919  0.48179817  1.0
  S  S10  1  0.30355930  0.20416919  0.58752155  1.0
  S  S10  1  0.29531807  0.21840886  0.69113831  1.0
  S  S10  1  0.29449468  0.21686619  0.80963952  1.0
  S  S10  1  0.29309699  0.20259886  0.90978666  1.0
  S  S10  1  0.28310846  0.37978961  0.02621115  1.0
  S  S10  1  0.29378407  0.37484689  0.12993917  1.0
  S  S10  1  0.29390065  0.37868225  0.24254908  1.0
  S  S10  1  0.29219848  0.37105555  0.35721489  1.0
  S  S10  1  0.28667184  0.37336833  0.47836390  1.0
  S  S10  1  0.28983434  0.37085741  0.57724440  1.0
  S  S10  1  0.29139040  0.38590419  0.69937866  1.0
  S  S10  1  0.29162402  0.37108919  0.79324178  1.0
  S  S10  1  0.28779050  0.36298721  0.91797565  1.0
  S  S10  1  0.29900739  0.53938382  0.02714652  1.0
  S  S10  1  0.28690353  0.52986472  0.13646991  1.0
  S  S10  1  0.29425373  0.55203336  0.25851534  1.0
  S  S10  1  0.29094933  0.54721582  0.36010509  1.0
  S  S10  1  0.29235134  0.54143866  0.46871050  1.0
  S  S10  1  0.29183117  0.55174523  0.58177986  1.0
  S  S10  1  0.30103576  0.53620150  0.67629314  1.0
  S  S10  1  0.29002913  0.53658028  0.79469824  1.0
  S  S10  1  0.29883313  0.53353628  0.91711871  1.0
  S  S10  1  0.30239530  0.70133744  0.02379771  1.0
  S  S10  1  0.29909302  0.70580611  0.13797710  1.0
  S  S10  1  0.29553150  0.70938946  0.24483594  1.0
  S  S10  1  0.28844167  0.70167287  0.36163793  1.0
  S  S10  1  0.28905569  0.71560946  0.47815574  1.0
  S  S10  1  0.28656494  0.71282437  0.59182581  1.0
  S  S10  1  0.28806999  0.71563784  0.69478290  1.0
  S  S10  1  0.29713495  0.70373150  0.81321033  1.0
  S  S10  1  0.28899686  0.71223091  0.91360002  1.0
  S  S10  1  0.29501909  0.86901704  0.12948157  1.0
  S  S10  1  0.29377292  0.87276570  0.24509206  1.0
  S  S10  1  0.29505985  0.86590663  0.36496243  1.0
  S  S10  1  0.29293663  0.87964093  0.47237231  1.0
  S  S10  1  0.29524796  0.86770878  0.58695483  1.0
  S  S10  1  0.29370245  0.87211022  0.69103980  1.0
  S  S10  1  0.29414786  0.87609648  0.80608634  1.0
  S  S10  1  0.30059409  0.86869327  0.91803097  1.0
  S  S10  1  0.49180434  0.04861772  0.03390999  1.0
  S  S10  1  0.49331909  0.04544356  0.14279022  1.0
  S  S10  1  0.49732343  0.04931265  0.24565420  1.0
  S  S10  1  0.48975961  0.03475437  0.35732492  1.0
  S  S10  1  0.49191982  0.04079302  0.47218103  1.0
  S  S10  1  0.49492726  0.04126861  0.58249987  1.0
  S  S10  1  0.49646729  0.03680698  0.69680521  1.0
  S  S10  1  0.48928793  0.05042179  0.80373882  1.0
  S  S10  1  0.49266001  0.03077842  0.91752778  1.0
  S  S10  1  0.49281455  0.20939282  0.02454858  1.0
  S  S10  1  0.49546111  0.21335537  0.13880300  1.0
  S  S10  1  0.49891509  0.20395724  0.24404870  1.0
  S  S10  1  0.49437035  0.21235948  0.47231429  1.0
  S  S10  1  0.48591237  0.20101745  0.57960463  1.0
  S  S10  1  0.48340756  0.20992059  0.69131461  1.0
  S  S10  1  0.48777480  0.20497662  0.80343099  1.0
  S  S10  1  0.48488400  0.20466235  0.91250984  1.0
  S  S10  1  0.49084333  0.37335091  0.03245793  1.0
  S  S10  1  0.49707539  0.37108727  0.13051737  1.0
  S  S10  1  0.49027646  0.38246584  0.23569094  1.0
  S  S10  1  0.49275728  0.37312585  0.36491606  1.0
  S  S10  1  0.49723811  0.36606809  0.47601782  1.0
  S  S10  1  0.48068934  0.37872499  0.69554609  1.0
  S  S10  1  0.50075273  0.37638313  0.79921437  1.0
  S  S10  1  0.48730603  0.38388379  0.92318812  1.0
  S  S10  1  0.49010111  0.54180167  0.03248109  1.0
  S  S10  1  0.49617936  0.54053034  0.24314013  1.0
  S  S10  1  0.48814008  0.54746672  0.35638993  1.0
  S  S10  1  0.48889732  0.54208351  0.46804426  1.0
  S  S10  1  0.49428417  0.53969530  0.57861973  1.0
  S  S10  1  0.48867351  0.54597991  0.69218548  1.0
  S  S10  1  0.49380350  0.53546276  0.80662265  1.0
  S  S10  1  0.49389797  0.54610971  0.91582432  1.0
  S  S10  1  0.49376786  0.69725985  0.03125257  1.0
  S  S10  1  0.48574798  0.71464273  0.13577011  1.0
  S  S10  1  0.48431891  0.70780932  0.23910643  1.0
  S  S10  1  0.49787129  0.70519567  0.35271786  1.0
  S  S10  1  0.49563910  0.70807568  0.47233320  1.0
  S  S10  1  0.49177140  0.71537022  0.57842418  1.0
  S  S10  1  0.48447282  0.70167577  0.69409257  1.0
  S  S10  1  0.48905613  0.71614124  0.79645698  1.0
  S  S10  1  0.49742318  0.70569873  0.92106621  1.0
  S  S10  1  0.49486422  0.87617117  0.02867435  1.0
  S  S10  1  0.49846373  0.87469092  0.12594320  1.0
  S  S10  1  0.49833089  0.87334979  0.26122081  1.0
  S  S10  1  0.48933123  0.87268330  0.36244367  1.0
  S  S10  1  0.49614199  0.87757117  0.46645025  1.0
  S  S10  1  0.48654806  0.87088072  0.57235031  1.0
  S  S10  1  0.50264118  0.86876636  0.69012059  1.0
  S  S10  1  0.49579686  0.87503177  0.79961250  1.0
  S  S10  1  0.49159821  0.87129744  0.91255849  1.0
  S  S10  1  0.69428969  0.03535963  0.03094040  1.0
  S  S10  1  0.69270287  0.03811682  0.13444750  1.0
  S  S10  1  0.69816817  0.04664573  0.24858483  1.0
  S  S10  1  0.68934232  0.04512377  0.35846601  1.0
  S  S10  1  0.70105476  0.04143825  0.47867127  1.0
  S  S10  1  0.69331264  0.03535867  0.59856738  1.0
  S  S10  1  0.68511646  0.02964060  0.68042173  1.0
  S  S10  1  0.70601710  0.05458867  0.80361772  1.0
  S  S10  1  0.69450733  0.04319323  0.90430019  1.0
  S  S10  1  0.69962279  0.21641181  0.01835015  1.0
  S  S10  1  0.69396588  0.20788669  0.13501654  1.0
  S  S10  1  0.68894980  0.20764998  0.24440820  1.0
  S  S10  1  0.69765293  0.20816517  0.35461680  1.0
  S  S10  1  0.69221413  0.20747369  0.46850115  1.0
  S  S10  1  0.69572018  0.20665030  0.57750061  1.0
  S  S10  1  0.68555000  0.20828104  0.69850530  1.0
  S  S10  1  0.69245391  0.20527903  0.79826201  1.0
  S  S10  1  0.68373424  0.21549067  0.91658448  1.0
  S  S10  1  0.69618216  0.37652747  0.02066900  1.0
  S  S10  1  0.69075825  0.37195480  0.13389615  1.0
  S  S10  1  0.69028955  0.38172128  0.25828948  1.0
  S  S10  1  0.68798542  0.37397056  0.35956964  1.0
  S  S10  1  0.68744536  0.37532130  0.47141527  1.0
  S  S10  1  0.69195055  0.37881474  0.58061290  1.0
  S  S10  1  0.67803315  0.36915645  0.81063524  1.0
  S  S10  1  0.69493736  0.35765396  0.90571904  1.0
  S  S10  1  0.69594349  0.53816144  0.01033722  1.0
  S  S10  1  0.69762871  0.54607058  0.13164964  1.0
  S  S10  1  0.69855544  0.53685185  0.24388499  1.0
  S  S10  1  0.68991530  0.53013492  0.36063679  1.0
  S  S10  1  0.69493648  0.53887706  0.47334676  1.0
  S  S10  1  0.68439675  0.54584067  0.58238346  1.0
  S  S10  1  0.68889193  0.54418608  0.68692047  1.0
  S  S10  1  0.69785696  0.54487316  0.80481399  1.0
  S  S10  1  0.69003174  0.54638275  0.92050071  1.0
  S  S10  1  0.70036196  0.70501590  0.02951389  1.0
  S  S10  1  0.69930635  0.70685469  0.14382163  1.0
  S  S10  1  0.69313309  0.70213601  0.24341080  1.0
  S  S10  1  0.68513416  0.70809664  0.35751642  1.0
  S  S10  1  0.69328049  0.71661770  0.46941049  1.0
  S  S10  1  0.69100643  0.70711958  0.57051645  1.0
  S  S10  1  0.69575201  0.70741594  0.69215977  1.0
  S  S10  1  0.69133774  0.70910832  0.79568856  1.0
  S  S10  1  0.69233461  0.70465850  0.91413469  1.0
  S  S10  1  0.68727308  0.87791151  0.02517214  1.0
  S  S10  1  0.68587268  0.88075735  0.13336520  1.0
  S  S10  1  0.69029655  0.88275886  0.25458818  1.0
  S  S10  1  0.69001424  0.87567826  0.36210338  1.0
  S  S10  1  0.69864648  0.87553950  0.47206941  1.0
  S  S10  1  0.68777739  0.86579940  0.58363348  1.0
  S  S10  1  0.68831165  0.86937636  0.69521585  1.0
  S  S10  1  0.69160390  0.87638450  0.79584388  1.0
  S  S10  1  0.68779173  0.88492042  0.91036048  1.0
  S  S10  1  0.89132512  0.04311074  0.01922779  1.0
  S  S10  1  0.89909348  0.04171231  0.13487898  1.0
  S  S10  1  0.89767226  0.04721391  0.25799141  1.0
  S  S10  1  0.89015824  0.05501021  0.36190823  1.0
  S  S10  1  0.90077887  0.04766414  0.46600331  1.0
  S  S10  1  0.88817794  0.03069068  0.56966007  1.0
  S  S10  1  0.88928343  0.04937492  0.68900907  1.0
  S  S10  1  0.88896312  0.04592314  0.79814081  1.0
  S  S10  1  0.90152851  0.04007472  0.91901364  1.0
  S  S10  1  0.89134122  0.20848286  0.03119447  1.0
  S  S10  1  0.89348497  0.21742133  0.13190035  1.0
  S  S10  1  0.88585496  0.19769072  0.25411321  1.0
  S  S10  1  0.89684093  0.20671724  0.36001612  1.0
  S  S10  1  0.89767890  0.20717599  0.45991350  1.0
  S  S10  1  0.88361707  0.20167356  0.58116779  1.0
  S  S10  1  0.88763920  0.21462090  0.68478530  1.0
  S  S10  1  0.88887808  0.19725254  0.80040850  1.0
  S  S10  1  0.89237555  0.21489024  0.91459796  1.0
  S  S10  1  0.89603874  0.38111494  0.02719216  1.0
  S  S10  1  0.88786392  0.37746154  0.14427031  1.0
  S  S10  1  0.89076774  0.37837440  0.25015818  1.0
  S  S10  1  0.89049799  0.38070256  0.35629358  1.0
  S  S10  1  0.89460173  0.37354369  0.46973763  1.0
  S  S10  1  0.89700060  0.36315496  0.58397171  1.0
  S  S10  1  0.89587034  0.37150240  0.69155144  1.0
  S  S10  1  0.88746656  0.37013892  0.80430916  1.0
  S  S10  1  0.90544527  0.37903945  0.90932392  1.0
  S  S10  1  0.89621294  0.54520070  0.01564982  1.0
  S  S10  1  0.89076305  0.54079943  0.13680982  1.0
  S  S10  1  0.89218267  0.54256566  0.24218431  1.0
  S  S10  1  0.89071688  0.54004966  0.36470687  1.0
  S  S10  1  0.88885793  0.54017925  0.46756096  1.0
  S  S10  1  0.89735590  0.54606096  0.57556053  1.0
  S  S10  1  0.89432414  0.53551213  0.69314149  1.0
  S  S10  1  0.89915952  0.52976474  0.79734188  1.0
  S  S10  1  0.89311800  0.53925743  0.91510973  1.0
  S  S10  1  0.89192399  0.69810770  0.02844331  1.0
  S  S10  1  0.88567624  0.70958368  0.13369113  1.0
  S  S10  1  0.90432667  0.70759788  0.24918957  1.0
  S  S10  1  0.89510554  0.71038737  0.35824356  1.0
  S  S10  1  0.88739483  0.70765310  0.45933706  1.0
  S  S10  1  0.89477400  0.72610112  0.58157349  1.0
  S  S10  1  0.89207158  0.69954641  0.68639109  1.0
  S  S10  1  0.89680722  0.69952832  0.79886823  1.0
  S  S10  1  0.89517493  0.71325585  0.91335040  1.0
  S  S10  1  0.89295254  0.87573231  0.01833775  1.0
  S  S10  1  0.89197390  0.87647164  0.13568515  1.0
  S  S10  1  0.88272717  0.88434262  0.24132249  1.0
  S  S10  1  0.89270008  0.87695772  0.35591161  1.0
  S  S10  1  0.89356064  0.87028339  0.48119463  1.0
  S  S10  1  0.89103949  0.88046943  0.57465988  1.0
  S  S10  1  0.89594078  0.87063663  0.68413416  1.0
  S  S10  1  0.88702287  0.86984145  0.80344039  1.0
  S  S10  1  0.90442511  0.89271175  0.91470388  1.0
  S  S11  1  0.19712963  0.03403889  0.01903978  1.0
  S  S11  1  0.19249269  0.04499020  0.14587728  1.0
  S  S11  1  0.19773009  0.03965629  0.25311461  1.0
  S  S11  1  0.19643980  0.04892753  0.35889244  1.0
  S  S11  1  0.19339175  0.04561844  0.47574812  1.0
  S  S11  1  0.18923462  0.04168548  0.58894084  1.0
  S  S11  1  0.18854266  0.03438286  0.70838440  1.0
  S  S11  1  0.19327619  0.04737544  0.80941884  1.0
  S  S11  1  0.19758342  0.04214838  0.92258673  1.0
  S  S11  1  0.18680098  0.19759463  0.02790476  1.0
  S  S11  1  0.18522212  0.19545397  0.14325464  1.0
  S  S11  1  0.18350696  0.21410991  0.26057195  1.0
  S  S11  1  0.18513628  0.21008953  0.37395297  1.0
  S  S11  1  0.18998377  0.21204962  0.48797790  1.0
  S  S11  1  0.18396730  0.20213218  0.58912800  1.0
  S  S11  1  0.19970283  0.20095504  0.70864471  1.0
  S  S11  1  0.19299875  0.19636487  0.81694067  1.0
  S  S11  1  0.19002549  0.21106209  0.91035187  1.0
  S  S11  1  0.18857960  0.36589328  0.02176896  1.0
  S  S11  1  0.19282944  0.37844818  0.13863308  1.0
  S  S11  1  0.18516541  0.36723638  0.25474638  1.0
  S  S11  1  0.19289259  0.37736098  0.37232152  1.0
  S  S11  1  0.19521227  0.37748847  0.48784616  1.0
  S  S11  1  0.19096822  0.38950189  0.59381104  1.0
  S  S11  1  0.19085269  0.37989651  0.69599453  1.0
  S  S11  1  0.18516920  0.37495109  0.80028676  1.0
  S  S11  1  0.19350301  0.37986999  0.91820746  1.0
  S  S11  1  0.19349299  0.54297099  0.03509893  1.0
  S  S11  1  0.19278668  0.53975192  0.14596271  1.0
  S  S11  1  0.19313156  0.52867429  0.25081431  1.0
  S  S11  1  0.18974956  0.54222003  0.36491026  1.0
  S  S11  1  0.18260338  0.53259128  0.46975449  1.0
  S  S11  1  0.19266177  0.54819974  0.57732097  1.0
  S  S11  1  0.18898465  0.54137176  0.69209360  1.0
  S  S11  1  0.19277622  0.54556199  0.80415565  1.0
  S  S11  1  0.19397537  0.54096995  0.91313006  1.0
  S  S11  1  0.19163669  0.71111161  0.03820025  1.0
  S  S11  1  0.20054843  0.70487963  0.13819087  1.0
  S  S11  1  0.19254164  0.70503165  0.25932926  1.0
  S  S11  1  0.19284267  0.70866943  0.36733725  1.0
  S  S11  1  0.19313794  0.71019039  0.47637797  1.0
  S  S11  1  0.19161794  0.70284305  0.59563644  1.0
  S  S11  1  0.18781838  0.71839740  0.69902641  1.0
  S  S11  1  0.18933676  0.71170900  0.81255844  1.0
  S  S11  1  0.20073968  0.70021059  0.91842731  1.0
  S  S11  1  0.19921533  0.87954190  0.03314720  1.0
  S  S11  1  0.19972094  0.87390527  0.12854971  1.0
  S  S11  1  0.19051031  0.88723919  0.25434793  1.0
  S  S11  1  0.18813440  0.88311662  0.36843506  1.0
  S  S11  1  0.19307392  0.87855985  0.46940375  1.0
  S  S11  1  0.19053232  0.87460497  0.59204243  1.0
  S  S11  1  0.18662486  0.87738605  0.70426779  1.0
  S  S11  1  0.20494200  0.86970318  0.80904009  1.0
  S  S11  1  0.18481197  0.87491178  0.91780877  1.0
  S  S11  1  0.39858543  0.03453090  0.02336490  1.0
  S  S11  1  0.39993284  0.03781479  0.14268646  1.0
  S  S11  1  0.39381293  0.03687677  0.24843974  1.0
  S  S11  1  0.39796578  0.04578586  0.36374789  1.0
  S  S11  1  0.39165711  0.04359288  0.47702617  1.0
  S  S11  1  0.39863592  0.04153978  0.58846834  1.0
  S  S11  1  0.39592531  0.04614300  0.70506287  1.0
  S  S11  1  0.39227715  0.03822402  0.80632806  1.0
  S  S11  1  0.39553915  0.04100900  0.93184442  1.0
  S  S11  1  0.39240285  0.20252355  0.03225766  1.0
  S  S11  1  0.40002209  0.20337039  0.13701070  1.0
  S  S11  1  0.39140738  0.20440372  0.24536797  1.0
  S  S11  1  0.38464788  0.20974739  0.36772797  1.0
  S  S11  1  0.38883963  0.20790431  0.47595188  1.0
  S  S11  1  0.38682243  0.21355850  0.58720972  1.0
  S  S11  1  0.39495830  0.21247015  0.71037910  1.0
  S  S11  1  0.38722498  0.20290188  0.81744418  1.0
  S  S11  1  0.39559607  0.20875328  0.91678489  1.0
  S  S11  1  0.39118237  0.37370730  0.02235728  1.0
  S  S11  1  0.39719842  0.36276749  0.13698652  1.0
  S  S11  1  0.39018449  0.38804061  0.25217321  1.0
  S  S11  1  0.39391985  0.36966150  0.36856505  1.0
  S  S11  1  0.40707644  0.37799021  0.47311705  1.0
  S  S11  1  0.38219711  0.37922031  0.58068539  1.0
  S  S11  1  0.38856700  0.38066837  0.69458694  1.0
  S  S11  1  0.39187002  0.37956158  0.80443205  1.0
  S  S11  1  0.38590524  0.37782475  0.92349762  1.0
  S  S11  1  0.38945667  0.53785131  0.02450810  1.0
  S  S11  1  0.39590190  0.55334093  0.14668497  1.0
  S  S11  1  0.39188477  0.54602546  0.24819160  1.0
  S  S11  1  0.39417915  0.53506408  0.36316782  1.0
  S  S11  1  0.39771010  0.54660697  0.47804077  1.0
  S  S11  1  0.39441815  0.53718822  0.58683161  1.0
  S  S11  1  0.39625028  0.54018736  0.69605237  1.0
  S  S11  1  0.38999253  0.53993308  0.80406571  1.0
  S  S11  1  0.39246017  0.53971816  0.91135910  1.0
  S  S11  1  0.40532448  0.70202179  0.02976636  1.0
  S  S11  1  0.39264536  0.70507929  0.14112244  1.0
  S  S11  1  0.38825364  0.71275737  0.25260110  1.0
  S  S11  1  0.39592638  0.71727594  0.36230156  1.0
  S  S11  1  0.39620123  0.71768020  0.47427195  1.0
  S  S11  1  0.39579012  0.70550264  0.59257642  1.0
  S  S11  1  0.38984490  0.71261066  0.70258679  1.0
  S  S11  1  0.38645429  0.70427718  0.80442597  1.0
  S  S11  1  0.39773126  0.70118271  0.92116282  1.0
  S  S11  1  0.39596674  0.87603053  0.03744310  1.0
  S  S11  1  0.38159614  0.87830399  0.13969745  1.0
  S  S11  1  0.38482607  0.86842278  0.26124688  1.0
  S  S11  1  0.39549619  0.87987868  0.36905654  1.0
  S  S11  1  0.38556643  0.87649497  0.48092721  1.0
  S  S11  1  0.39033012  0.88328890  0.58271886  1.0
  S  S11  1  0.39296284  0.87741853  0.70127675  1.0
  S  S11  1  0.39090356  0.88115752  0.81060905  1.0
  S  S11  1  0.38415878  0.88617341  0.91417167  1.0
  S  S11  1  0.60192007  0.04070733  0.02862683  1.0
  S  S11  1  0.59433308  0.03741642  0.13133907  1.0
  S  S11  1  0.59179431  0.04394843  0.26109801  1.0
  S  S11  1  0.58639247  0.04519665  0.36326742  1.0
  S  S11  1  0.59250495  0.04758043  0.47215887  1.0
  S  S11  1  0.59317633  0.04829767  0.59166349  1.0
  S  S11  1  0.58624807  0.03793765  0.69638383  1.0
  S  S11  1  0.59640336  0.04013839  0.80872843  1.0
  S  S11  1  0.59858182  0.03960632  0.92741276  1.0
  S  S11  1  0.58432532  0.20594390  0.02306445  1.0
  S  S11  1  0.59292258  0.21290224  0.14073301  1.0
  S  S11  1  0.58997154  0.20006163  0.26187997  1.0
  S  S11  1  0.59222812  0.20558257  0.37234400  1.0
  S  S11  1  0.59058251  0.20279484  0.47107575  1.0
  S  S11  1  0.58806047  0.20184779  0.58227861  1.0
  S  S11  1  0.60439597  0.20133800  0.68903934  1.0
  S  S11  1  0.59372798  0.20787117  0.81187283  1.0
  S  S11  1  0.58957389  0.20304944  0.92850516  1.0
  S  S11  1  0.58429409  0.37719382  0.03425988  1.0
  S  S11  1  0.59644212  0.37315428  0.13481241  1.0
  S  S11  1  0.59982590  0.37228938  0.26105568  1.0
  S  S11  1  0.59417751  0.37205589  0.36597630  1.0
  S  S11  1  0.59808506  0.37549941  0.47092705  1.0
  S  S11  1  0.58341614  0.37241889  0.59045454  1.0
  S  S11  1  0.58729619  0.37914408  0.69732026  1.0
  S  S11  1  0.59606168  0.36076850  0.80054162  1.0
  S  S11  1  0.59003061  0.38635410  0.91528061  1.0
  S  S11  1  0.59170707  0.55475136  0.03283466  1.0
  S  S11  1  0.59663146  0.53775887  0.14803271  1.0
  S  S11  1  0.59898662  0.54471831  0.25225393  1.0
  S  S11  1  0.59513278  0.53177626  0.36976281  1.0
  S  S11  1  0.58810100  0.53997172  0.48212079  1.0
  S  S11  1  0.59781927  0.53180399  0.58089573  1.0
  S  S11  1  0.59553559  0.53108440  0.70489744  1.0
  S  S11  1  0.59292871  0.55026262  0.80422059  1.0
  S  S11  1  0.58906425  0.54795828  0.91777463  1.0
  S  S11  1  0.58614505  0.71174924  0.02182680  1.0
  S  S11  1  0.59953945  0.70945403  0.13676541  1.0
  S  S11  1  0.59805703  0.71540753  0.25274255  1.0
  S  S11  1  0.60369934  0.72203623  0.36559452  1.0
  S  S11  1  0.59765874  0.71629589  0.46876284  1.0
  S  S11  1  0.59377135  0.70418516  0.58157345  1.0
  S  S11  1  0.59294709  0.70953027  0.68838651  1.0
  S  S11  1  0.59405590  0.70680661  0.81589184  1.0
  S  S11  1  0.59814451  0.70312552  0.92653894  1.0
  S  S11  1  0.59501561  0.87367201  0.02771031  1.0
  S  S11  1  0.58661070  0.86758990  0.13165927  1.0
  S  S11  1  0.59244425  0.86246697  0.24800256  1.0
  S  S11  1  0.59561914  0.88408478  0.35757825  1.0
  S  S11  1  0.59538330  0.87311593  0.47213282  1.0
  S  S11  1  0.59311213  0.87101602  0.58559708  1.0
  S  S11  1  0.59269413  0.88206078  0.70466949  1.0
  S  S11  1  0.58935193  0.87335773  0.81265808  1.0
  S  S11  1  0.59143659  0.87934587  0.92430291  1.0
  S  S11  1  0.79742800  0.04220069  0.02416287  1.0
  S  S11  1  0.79150173  0.03858043  0.14584396  1.0
  S  S11  1  0.79995548  0.05111872  0.25754542  1.0
  S  S11  1  0.78767336  0.05020323  0.36615648  1.0
  S  S11  1  0.78822253  0.04691049  0.47374046  1.0
  S  S11  1  0.78260749  0.03570276  0.58569976  1.0
  S  S11  1  0.79181702  0.03518766  0.70125754  1.0
  S  S11  1  0.79493479  0.03293172  0.82262109  1.0
  S  S11  1  0.78627651  0.03888181  0.92143361  1.0
  S  S11  1  0.79007078  0.21718091  0.02954525  1.0
  S  S11  1  0.78773858  0.21207197  0.12581886  1.0
  S  S11  1  0.79500494  0.21618102  0.24015844  1.0
  S  S11  1  0.79032313  0.19831826  0.36390484  1.0
  S  S11  1  0.80159593  0.20992471  0.47237591  1.0
  S  S11  1  0.77824011  0.20160387  0.58533104  1.0
  S  S11  1  0.79280507  0.21042079  0.70135026  1.0
  S  S11  1  0.78781870  0.20857723  0.80557453  1.0
  S  S11  1  0.78765558  0.20302909  0.92233484  1.0
  S  S11  1  0.77953881  0.36371406  0.04775077  1.0
  S  S11  1  0.78902264  0.38393633  0.14125893  1.0
  S  S11  1  0.78953650  0.37899829  0.25316119  1.0
  S  S11  1  0.79144602  0.37473235  0.36597952  1.0
  S  S11  1  0.78890432  0.37206844  0.46962009  1.0
  S  S11  1  0.78631212  0.38625560  0.58111946  1.0
  S  S11  1  0.79732521  0.37283519  0.70011048  1.0
  S  S11  1  0.79233043  0.36410215  0.80843545  1.0
  S  S11  1  0.79536391  0.36919005  0.93203460  1.0
  S  S11  1  0.79639464  0.54666131  0.03555004  1.0
  S  S11  1  0.78068796  0.54595494  0.15400826  1.0
  S  S11  1  0.79613116  0.54006786  0.24664740  1.0
  S  S11  1  0.78629016  0.53356339  0.36165230  1.0
  S  S11  1  0.78700764  0.54074208  0.47605524  1.0
  S  S11  1  0.78375417  0.53701199  0.58290164  1.0
  S  S11  1  0.78930841  0.54177566  0.69784632  1.0
  S  S11  1  0.79022184  0.53757553  0.80816550  1.0
  S  S11  1  0.79954026  0.53281191  0.92555286  1.0
  S  S11  1  0.78399009  0.70999286  0.03604882  1.0
  S  S11  1  0.78573277  0.71046730  0.13591249  1.0
  S  S11  1  0.79818247  0.69859870  0.24786118  1.0
  S  S11  1  0.79299588  0.71266182  0.36433834  1.0
  S  S11  1  0.79481185  0.70499199  0.46900150  1.0
  S  S11  1  0.79965167  0.71136774  0.58339900  1.0
  S  S11  1  0.78408410  0.71577492  0.70405324  1.0
  S  S11  1  0.79125437  0.70431427  0.80686547  1.0
  S  S11  1  0.79128770  0.71301507  0.91319130  1.0
  S  S11  1  0.78942652  0.87388259  0.03190738  1.0
  S  S11  1  0.79514107  0.87724309  0.15106246  1.0
  S  S11  1  0.78738998  0.88389235  0.24752674  1.0
  S  S11  1  0.79036656  0.87735580  0.37024885  1.0
  S  S11  1  0.79037479  0.87738800  0.47322533  1.0
  S  S11  1  0.78088003  0.87476616  0.57929330  1.0
  S  S11  1  0.79868755  0.88277761  0.69261323  1.0
  S  S11  1  0.78739922  0.87117339  0.81117758  1.0
  S  S11  1  0.79501763  0.89573402  0.91770760  1.0
  S  S11  1  0.99279614  0.05341901  0.03205962  1.0
  S  S11  1  0.98690809  0.04374713  0.14545004  1.0
  S  S11  1  0.99063418  0.04650502  0.25656918  1.0
  S  S11  1  0.99005134  0.05110697  0.35956540  1.0
  S  S11  1  0.99452316  0.03800350  0.46572366  1.0
  S  S11  1  0.99412907  0.05340438  0.58576230  1.0
  S  S11  1  0.98488449  0.04301763  0.69270754  1.0
  S  S11  1  0.99760076  0.04027569  0.79862314  1.0
  S  S11  1  0.99487866  0.04293744  0.91775554  1.0
  S  S11  1  0.98715407  0.21921815  0.02803858  1.0
  S  S11  1  0.99681851  0.20551492  0.14531936  1.0
  S  S11  1  0.99260684  0.20850377  0.24822066  1.0
  S  S11  1  0.99497661  0.21688187  0.35819937  1.0
  S  S11  1  0.98818506  0.22624767  0.46948901  1.0
  S  S11  1  0.98957143  0.21675154  0.59375626  1.0
  S  S11  1  0.98021847  0.21299006  0.69610453  1.0
  S  S11  1  0.99159439  0.21542175  0.80638136  1.0
  S  S11  1  0.98978423  0.20637718  0.91748743  1.0
  S  S11  1  0.99407408  0.38305092  0.03282875  1.0
  S  S11  1  0.99227578  0.37832414  0.14586061  1.0
  S  S11  1  0.99522556  0.37094023  0.25503492  1.0
  S  S11  1  0.98175873  0.38433213  0.37217269  1.0
  S  S11  1  0.99678009  0.38258006  0.47454051  1.0
  S  S11  1  0.98859341  0.36737146  0.59154659  1.0
  S  S11  1  0.98859276  0.37272609  0.69838748  1.0
  S  S11  1  0.99215294  0.37661083  0.79842948  1.0
  S  S11  1  0.99117433  0.38001407  0.91703690  1.0
  S  S11  1  0.98803589  0.54747548  0.02818922  1.0
  S  S11  1  0.99326101  0.54038636  0.14160875  1.0
  S  S11  1  0.99997615  0.54514623  0.24606751  1.0
  S  S11  1  0.99048248  0.53915640  0.36501185  1.0
  S  S11  1  0.99687685  0.54186036  0.47495785  1.0
  S  S11  1  0.98119959  0.54972194  0.58514123  1.0
  S  S11  1  0.99363119  0.54322583  0.69297690  1.0
  S  S11  1  0.99112236  0.53693896  0.81581238  1.0
  S  S11  1  0.98123804  0.53586680  0.91763467  1.0
  S  S11  1  0.99981583  0.71263957  0.02157807  1.0
  S  S11  1  0.99176335  0.71272179  0.15374041  1.0
  S  S11  1  0.99064390  0.70112741  0.25447807  1.0
  S  S11  1  0.99212391  0.71115203  0.36759415  1.0
  S  S11  1  0.99393717  0.71154680  0.48385355  1.0
  S  S11  1  0.99088697  0.70088410  0.58776569  1.0
  S  S11  1  0.98594330  0.70150975  0.69268892  1.0
  S  S11  1  0.98609603  0.71544269  0.80854418  1.0
  S  S11  1  0.99586845  0.71143770  0.91824535  1.0
  S  S11  1  0.99713505  0.87206414  0.02958516  1.0
  S  S11  1  0.98880630  0.88351923  0.14102758  1.0
  S  S11  1  0.99532549  0.87146248  0.25733569  1.0
  S  S11  1  0.99619800  0.86511085  0.36385580  1.0
  S  S11  1  0.99292359  0.87317654  0.48248656  1.0
  S  S11  1  0.98626323  0.87227272  0.58142946  1.0
  S  S11  1  0.99748160  0.86874208  0.68718512  1.0
  S  S11  1  0.99449357  0.87415330  0.81394426  1.0
  S  S11  1  0.99639540  0.87474154  0.91152831  1.0
  S  S12  1  0.15653881  0.07951220  0.04501360  1.0
  S  S12  1  0.15923161  0.08920053  0.15782313  1.0
  S  S12  1  0.17228650  0.09609152  0.26793201  1.0
  S  S12  1  0.15470819  0.09045947  0.38390314  1.0
  S  S12  1  0.16546217  0.08119970  0.49251736  1.0
  S  S12  1  0.16240530  0.08899071  0.59656425  1.0
  S  S12  1  0.14967833  0.08582776  0.71445382  1.0
  S  S12  1  0.16744398  0.09479490  0.82710672  1.0
  S  S12  1  0.16256162  0.07968534  0.93028896  1.0
  S  S12  1  0.16620865  0.25839512  0.03965339  1.0
  S  S12  1  0.15216739  0.25237468  0.15492219  1.0
  S  S12  1  0.15549705  0.24902904  0.38531967  1.0
  S  S12  1  0.16551733  0.27030326  0.48146801  1.0
  S  S12  1  0.16297152  0.25698626  0.60060946  1.0
  S  S12  1  0.17131940  0.25035395  0.70995071  1.0
  S  S12  1  0.15878518  0.25349861  0.81204817  1.0
  S  S12  1  0.16901039  0.26444675  0.93788518  1.0
  S  S12  1  0.15583853  0.42532246  0.05048344  1.0
  S  S12  1  0.16416450  0.42451748  0.16713246  1.0
  S  S12  1  0.15897982  0.42260619  0.27139635  1.0
  S  S12  1  0.16410673  0.42704006  0.38200602  1.0
  S  S12  1  0.16451705  0.42237234  0.48639702  1.0
  S  S12  1  0.16320463  0.43282716  0.71229792  1.0
  S  S12  1  0.16551233  0.42431738  0.83462156  1.0
  S  S12  1  0.16183149  0.42730089  0.93073997  1.0
  S  S12  1  0.15660136  0.59059916  0.05226482  1.0
  S  S12  1  0.16232538  0.58002659  0.16016582  1.0
  S  S12  1  0.15487516  0.59541037  0.27095413  1.0
  S  S12  1  0.16177214  0.59472449  0.48877245  1.0
  S  S12  1  0.16295230  0.58164067  0.59949711  1.0
  S  S12  1  0.16360600  0.57691163  0.71862409  1.0
  S  S12  1  0.15244211  0.58306269  0.82182989  1.0
  S  S12  1  0.16300572  0.58990167  0.93033778  1.0
  S  S12  1  0.16804719  0.76419846  0.04345511  1.0
  S  S12  1  0.16055250  0.75522028  0.16895720  1.0
  S  S12  1  0.16260468  0.76652447  0.27197598  1.0
  S  S12  1  0.16298213  0.75348844  0.37802026  1.0
  S  S12  1  0.15792856  0.75492283  0.49293563  1.0
  S  S12  1  0.16037127  0.75520887  0.59894575  1.0
  S  S12  1  0.15909183  0.75970114  0.71263075  1.0
  S  S12  1  0.15574969  0.75400100  0.82154528  1.0
  S  S12  1  0.15867450  0.76299532  0.93008964  1.0
  S  S12  1  0.17641428  0.93376049  0.05307763  1.0
  S  S12  1  0.15678204  0.91215505  0.15419743  1.0
  S  S12  1  0.16105326  0.92571657  0.26274158  1.0
  S  S12  1  0.15382860  0.91954414  0.37777601  1.0
  S  S12  1  0.15842323  0.92172573  0.48506638  1.0
  S  S12  1  0.17050799  0.93469188  0.60636959  1.0
  S  S12  1  0.16464270  0.91793461  0.71879169  1.0
  S  S12  1  0.16891852  0.93373853  0.82699284  1.0
  S  S12  1  0.16261814  0.92502095  0.93756361  1.0
  S  S12  1  0.35432773  0.09418501  0.04312128  1.0
  S  S12  1  0.37355015  0.08847182  0.15793737  1.0
  S  S12  1  0.36276136  0.08955291  0.27105788  1.0
  S  S12  1  0.36369213  0.10011524  0.38354303  1.0
  S  S12  1  0.36138277  0.08758482  0.48155452  1.0
  S  S12  1  0.37087388  0.09436790  0.61429680  1.0
  S  S12  1  0.35843507  0.10364678  0.70729429  1.0
  S  S12  1  0.36033148  0.09298993  0.82897775  1.0
  S  S12  1  0.36387289  0.07997470  0.92944709  1.0
  S  S12  1  0.35645584  0.24848502  0.04543011  1.0
  S  S12  1  0.35197857  0.26304994  0.16093443  1.0
  S  S12  1  0.37045131  0.25271936  0.37133072  1.0
  S  S12  1  0.36777263  0.26382798  0.49755686  1.0
  S  S12  1  0.36803168  0.26049840  0.59875658  1.0
  S  S12  1  0.36606281  0.25464304  0.71244806  1.0
  S  S12  1  0.35400225  0.25930018  0.82926721  1.0
  S  S12  1  0.36049872  0.25430179  0.93385829  1.0
  S  S12  1  0.35663427  0.42767373  0.04640131  1.0
  S  S12  1  0.36234333  0.42563280  0.14884959  1.0
  S  S12  1  0.36969995  0.42177081  0.26529037  1.0
  S  S12  1  0.36683846  0.42735198  0.50109834  1.0
  S  S12  1  0.35558698  0.41907908  0.70504328  1.0
  S  S12  1  0.36318657  0.42198717  0.81975735  1.0
  S  S12  1  0.36031943  0.41737247  0.94585705  1.0
  S  S12  1  0.35902928  0.58682525  0.03276591  1.0
  S  S12  1  0.35384249  0.58661459  0.15415580  1.0
  S  S12  1  0.36061524  0.58822166  0.26837094  1.0
  S  S12  1  0.36638840  0.59638702  0.38797756  1.0
  S  S12  1  0.35671944  0.59359276  0.49982543  1.0
  S  S12  1  0.36951046  0.60181035  0.60263490  1.0
  S  S12  1  0.35956534  0.57490543  0.70566450  1.0
  S  S12  1  0.35982990  0.58879182  0.81868240  1.0
  S  S12  1  0.36322736  0.59317458  0.93442851  1.0
  S  S12  1  0.36460047  0.76124450  0.05244150  1.0
  S  S12  1  0.35651044  0.75511974  0.15861279  1.0
  S  S12  1  0.35294155  0.75390117  0.27186558  1.0
  S  S12  1  0.36027562  0.74597672  0.37395816  1.0
  S  S12  1  0.35580487  0.75998549  0.49084994  1.0
  S  S12  1  0.35472485  0.74700154  0.59737414  1.0
  S  S12  1  0.36019835  0.75585016  0.71229516  1.0
  S  S12  1  0.36431082  0.76101205  0.81528449  1.0
  S  S12  1  0.36114305  0.76350942  0.93099610  1.0
  S  S12  1  0.35845857  0.92066243  0.04297027  1.0
  S  S12  1  0.36344121  0.92046929  0.25546204  1.0
  S  S12  1  0.36848672  0.93192777  0.37965219  1.0
  S  S12  1  0.36178804  0.92260473  0.48564460  1.0
  S  S12  1  0.35314669  0.93353440  0.60143602  1.0
  S  S12  1  0.35447699  0.91739038  0.71409175  1.0
  S  S12  1  0.36286593  0.92080078  0.81662362  1.0
  S  S12  1  0.35802234  0.91229060  0.93044787  1.0
  S  S12  1  0.56019850  0.09958787  0.04331192  1.0
  S  S12  1  0.56378227  0.10002372  0.15106457  1.0
  S  S12  1  0.55940141  0.08701835  0.25886793  1.0
  S  S12  1  0.56121454  0.09737788  0.49481660  1.0
  S  S12  1  0.56626378  0.08906011  0.59354449  1.0
  S  S12  1  0.57378270  0.09160664  0.70365119  1.0
  S  S12  1  0.57530206  0.08975258  0.80749099  1.0
  S  S12  1  0.56833536  0.07571177  0.93024031  1.0
  S  S12  1  0.56715345  0.26472934  0.05681342  1.0
  S  S12  1  0.56759772  0.26826213  0.15637130  1.0
  S  S12  1  0.55821136  0.25802486  0.27459359  1.0
  S  S12  1  0.55932808  0.26212213  0.37441635  1.0
  S  S12  1  0.55831744  0.26417166  0.49258950  1.0
  S  S12  1  0.55173859  0.25177220  0.58731952  1.0
  S  S12  1  0.56012024  0.25666561  0.70965703  1.0
  S  S12  1  0.56800365  0.25995018  0.83823805  1.0
  S  S12  1  0.56518644  0.26032813  0.93613703  1.0
  S  S12  1  0.56117703  0.41968098  0.04448678  1.0
  S  S12  1  0.56157608  0.42306018  0.16034182  1.0
  S  S12  1  0.56326147  0.42242413  0.26308312  1.0
  S  S12  1  0.56431116  0.42126105  0.37483492  1.0
  S  S12  1  0.55986741  0.43839300  0.48327102  1.0
  S  S12  1  0.55569475  0.42198400  0.59777697  1.0
  S  S12  1  0.56751127  0.42208568  0.70522081  1.0
  S  S12  1  0.56966344  0.42523727  0.82583492  1.0
  S  S12  1  0.56544278  0.41650440  0.93174506  1.0
  S  S12  1  0.56791509  0.59217758  0.04491105  1.0
  S  S12  1  0.56379726  0.58019323  0.14906322  1.0
  S  S12  1  0.55045117  0.59238650  0.27896113  1.0
  S  S12  1  0.55629375  0.59129407  0.38418445  1.0
  S  S12  1  0.56384731  0.58437623  0.49852447  1.0
  S  S12  1  0.56350509  0.58888724  0.60050825  1.0
  S  S12  1  0.56427943  0.58952810  0.72038925  1.0
  S  S12  1  0.56872633  0.59055415  0.82371594  1.0
  S  S12  1  0.55829637  0.75308920  0.03958249  1.0
  S  S12  1  0.56150121  0.75734595  0.14821708  1.0
  S  S12  1  0.56650314  0.74388974  0.27205730  1.0
  S  S12  1  0.56654997  0.76491857  0.38507533  1.0
  S  S12  1  0.57150286  0.76820401  0.49050010  1.0
  S  S12  1  0.55943401  0.75879237  0.60910243  1.0
  S  S12  1  0.56153233  0.75693537  0.83158501  1.0
  S  S12  1  0.56029207  0.75705739  0.93904031  1.0
  S  S12  1  0.55821567  0.92668406  0.04656440  1.0
  S  S12  1  0.56227678  0.90955909  0.15860572  1.0
  S  S12  1  0.56222299  0.92738270  0.27071657  1.0
  S  S12  1  0.56394257  0.92217441  0.37564554  1.0
  S  S12  1  0.56224895  0.92467655  0.48790170  1.0
  S  S12  1  0.56722735  0.92163879  0.59598525  1.0
  S  S12  1  0.56549155  0.93507802  0.70607401  1.0
  S  S12  1  0.56163254  0.93101766  0.82688567  1.0
  S  S12  1  0.56562137  0.92381880  0.92017818  1.0
  S  S12  1  0.76422572  0.09664103  0.05101919  1.0
  S  S12  1  0.75877100  0.10053800  0.15518687  1.0
  S  S12  1  0.75863413  0.08707562  0.27350791  1.0
  S  S12  1  0.75704856  0.09414454  0.37470142  1.0
  S  S12  1  0.76207240  0.08143369  0.49372003  1.0
  S  S12  1  0.76177097  0.09369131  0.60034770  1.0
  S  S12  1  0.76515463  0.09001948  0.71646738  1.0
  S  S12  1  0.76363695  0.09232616  0.92820622  1.0
  S  S12  1  0.76033645  0.25226865  0.05354835  1.0
  S  S12  1  0.76734210  0.25947228  0.15281086  1.0
  S  S12  1  0.75857729  0.25771179  0.27802832  1.0
  S  S12  1  0.76247716  0.26446385  0.60269831  1.0
  S  S12  1  0.76587791  0.25866653  0.70981886  1.0
  S  S12  1  0.75837243  0.25881970  0.82221859  1.0
  S  S12  1  0.76388112  0.25213799  0.93523101  1.0
  S  S12  1  0.76336320  0.42446603  0.04788748  1.0
  S  S12  1  0.76133384  0.44679277  0.15942927  1.0
  S  S12  1  0.76304474  0.42814738  0.26514974  1.0
  S  S12  1  0.75975246  0.42850264  0.49505402  1.0
  S  S12  1  0.76572689  0.41261013  0.71200220  1.0
  S  S12  1  0.76422569  0.42885309  0.82650433  1.0
  S  S12  1  0.75827123  0.42676503  0.93640523  1.0
  S  S12  1  0.76411010  0.58362943  0.04067690  1.0
  S  S12  1  0.77187340  0.59655424  0.15588335  1.0
  S  S12  1  0.76229092  0.60382334  0.26823581  1.0
  S  S12  1  0.76180008  0.58557495  0.37768117  1.0
  S  S12  1  0.75411887  0.59346842  0.60818104  1.0
  S  S12  1  0.76900869  0.58608510  0.69511118  1.0
  S  S12  1  0.76421373  0.59832279  0.81480716  1.0
  S  S12  1  0.79593530  0.58913428  0.83156219  1.0
  S  S12  1  0.75319420  0.75241375  0.04207766  1.0
  S  S12  1  0.75310387  0.76348576  0.16534151  1.0
  S  S12  1  0.76266755  0.76140475  0.25993217  1.0
  S  S12  1  0.76181321  0.75344471  0.38134163  1.0
  S  S12  1  0.74905091  0.75511675  0.49363383  1.0
  S  S12  1  0.76374757  0.76209490  0.59791784  1.0
  S  S12  1  0.74842537  0.76365210  0.71656818  1.0
  S  S12  1  0.77035158  0.75741843  0.82581158  1.0
  S  S12  1  0.77843520  0.74636080  0.93564944  1.0
  S  S12  1  0.76909792  0.92742463  0.04515821  1.0
  S  S12  1  0.75511368  0.93255968  0.16269999  1.0
  S  S12  1  0.76853679  0.92510585  0.26531777  1.0
  S  S12  1  0.76248652  0.93397173  0.37768218  1.0
  S  S12  1  0.77009606  0.92404312  0.48529494  1.0
  S  S12  1  0.75214994  0.92712625  0.60550596  1.0
  S  S12  1  0.75677628  0.93261833  0.70490937  1.0
  S  S12  1  0.76605668  0.92824173  0.82938966  1.0
  S  S12  1  0.75268134  0.93012401  0.93386664  1.0
  S  S12  1  0.96082084  0.09531922  0.05099925  1.0
  S  S12  1  0.95259230  0.08245314  0.16340954  1.0
  S  S12  1  0.96503734  0.09343168  0.26046889  1.0
  S  S12  1  0.96471079  0.09771578  0.39172511  1.0
  S  S12  1  0.96075182  0.09563605  0.50031412  1.0
  S  S12  1  0.95528780  0.10124560  0.71352618  1.0
  S  S12  1  0.96375139  0.08826801  0.82068010  1.0
  S  S12  1  0.95706891  0.08607901  0.93545661  1.0
  S  S12  1  0.96807478  0.25059235  0.04198029  1.0
  S  S12  1  0.96150065  0.25093758  0.15755362  1.0
  S  S12  1  0.96117365  0.24700167  0.27055772  1.0
  S  S12  1  0.95971927  0.26320289  0.37803519  1.0
  S  S12  1  0.95896898  0.25676441  0.49697577  1.0
  S  S12  1  0.97306673  0.26593288  0.59915385  1.0
  S  S12  1  0.95997450  0.25858029  0.70923260  1.0
  S  S12  1  0.96022403  0.25555018  0.82979010  1.0
  S  S12  1  0.96712340  0.25922172  0.94049733  1.0
  S  S12  1  0.96547848  0.41896043  0.04152662  1.0
  S  S12  1  0.96991034  0.42143921  0.15310141  1.0
  S  S12  1  0.96417157  0.42744159  0.27440363  1.0
  S  S12  1  0.96081391  0.41996248  0.37490864  1.0
  S  S12  1  0.95078065  0.41444279  0.49322285  1.0
  S  S12  1  0.96853947  0.41991960  0.59383309  1.0
  S  S12  1  0.96820033  0.43073577  0.71637108  1.0
  S  S12  1  0.95527663  0.42676724  0.82654874  1.0
  S  S12  1  0.96629142  0.42962941  0.93064160  1.0
  S  S12  1  0.96050044  0.59746100  0.04783392  1.0
  S  S12  1  0.95598989  0.60068187  0.16317171  1.0
  S  S12  1  0.97081956  0.59720097  0.26293217  1.0
  S  S12  1  0.96426404  0.59433305  0.37156444  1.0
  S  S12  1  0.95666719  0.59482271  0.60580317  1.0
  S  S12  1  0.97515211  0.59055781  0.70250253  1.0
  S  S12  1  0.96176551  0.59543147  0.82156130  1.0
  S  S12  1  0.96302794  0.58639358  0.94115400  1.0
  S  S12  1  0.96623729  0.75197747  0.04292389  1.0
  S  S12  1  0.95912783  0.74565304  0.15272747  1.0
  S  S12  1  0.95366948  0.76264641  0.27350573  1.0
  S  S12  1  0.96102838  0.75821200  0.38493343  1.0
  S  S12  1  0.96626918  0.77080848  0.49101938  1.0
  S  S12  1  0.96687521  0.76112913  0.59912038  1.0
  S  S12  1  0.96590814  0.76032588  0.70912216  1.0
  S  S12  1  0.95840626  0.75742159  0.81324977  1.0
  S  S12  1  0.96060395  0.75117946  0.93082495  1.0
  S  S12  1  0.95731606  0.92921637  0.04744129  1.0
  S  S12  1  0.96268069  0.92196172  0.16322265  1.0
  S  S12  1  0.96762131  0.92575954  0.27520151  1.0
  S  S12  1  0.96157376  0.92487871  0.37597240  1.0
  S  S12  1  0.95620997  0.91717901  0.49129839  1.0
  S  S12  1  0.96357594  0.91834111  0.60501149  1.0
  S  S12  1  0.97336131  0.92153804  0.70887783  1.0
  S  S12  1  0.96256027  0.93201829  0.82115708  1.0
  S  S12  1  0.97265073  0.91750697  0.93537804  1.0
  S  S13  1  0.15402693  0.15400464  0.26682656  1.0
  S  S13  1  0.16386887  0.16724841  0.37529095  1.0
  S  S13  1  0.06508763  0.15044443  0.32662801  1.0
  S  S13  1  0.17135945  0.16454760  0.59868092  1.0
  S  S13  1  0.16206379  0.16138347  0.71190511  1.0
  S  S13  1  0.16229281  0.15517568  0.82507861  1.0
  S  S13  1  0.16426895  0.34010748  0.04478994  1.0
  S  S13  1  0.16769874  0.31857514  0.16442772  1.0
  S  S13  1  0.16131561  0.31390238  0.26586745  1.0
  S  S13  1  0.16539892  0.32686678  0.36852242  1.0
  S  S13  1  0.06359411  0.41047101  0.65158666  1.0
  S  S13  1  0.16533818  0.32555247  0.70180635  1.0
  S  S13  1  0.16638049  0.32221372  0.83019238  1.0
  S  S13  1  0.15820200  0.32494887  0.94046171  1.0
  S  S13  1  0.15582445  0.49492870  0.16298138  1.0
  S  S13  1  0.10468251  0.49974609  0.32675491  1.0
  S  S13  1  0.15892020  0.49492438  0.58564951  1.0
  S  S13  1  0.15933753  0.48812970  0.70623524  1.0
  S  S13  1  0.16344711  0.48409138  0.83009614  1.0
  S  S13  1  0.16592188  0.49979178  0.93305698  1.0
  S  S13  1  0.36388843  0.58145429  0.98940060  1.0
  S  S13  1  0.15965743  0.66008192  0.15561993  1.0
  S  S13  1  0.15717492  0.64521816  0.37406964  1.0
  S  S13  1  0.15074030  0.82107380  0.44238478  1.0
  S  S13  1  0.15329180  0.66243103  0.71909297  1.0
  S  S13  1  0.00466889  0.75394974  0.13847238  1.0
  S  S13  1  0.16936426  0.82626579  0.04263164  1.0
  S  S13  1  0.14800543  0.81958439  0.16058018  1.0
  S  S13  1  0.17019446  0.81782099  0.37877501  1.0
  S  S13  1  0.15913353  0.82809030  0.60094333  1.0
  S  S13  1  0.15923930  0.99410304  0.03979733  1.0
  S  S13  1  0.16257611  0.99771853  0.37514368  1.0
  S  S13  1  0.16080365  0.98826557  0.49241733  1.0
  S  S13  1  0.16424714  0.98929858  0.71392063  1.0
  S  S13  1  0.14848156  0.99811499  0.93953418  1.0
  S  S13  1  0.35856537  0.15288153  0.15607433  1.0
  S  S13  1  0.35797672  0.15510880  0.38077679  1.0
  S  S13  1  0.36664323  0.16188091  0.50575196  1.0
  S  S13  1  0.36497286  0.16302150  0.60167952  1.0
  S  S13  1  0.36295312  0.16277023  0.82462069  1.0
  S  S13  1  0.36776602  0.32466843  0.26617743  1.0
  S  S13  1  0.36840118  0.32356816  0.37395325  1.0
  S  S13  1  0.35878517  0.33092113  0.50476410  1.0
  S  S13  1  0.35746656  0.32922755  0.60213448  1.0
  S  S13  1  0.36480915  0.33020138  0.71981891  1.0
  S  S13  1  0.36397841  0.32128804  0.93095171  1.0
  S  S13  1  0.36319995  0.49446118  0.15490474  1.0
  S  S13  1  0.37257962  0.49875957  0.25663845  1.0
  S  S13  1  0.36190644  0.48676870  0.38948297  1.0
  S  S13  1  0.35024530  0.49475529  0.49059204  1.0
  S  S13  1  0.36379223  0.49207718  0.61418587  1.0
  S  S13  1  0.30448266  0.65187382  0.95098029  1.0
  S  S13  1  0.36077802  0.66646624  0.04131419  1.0
  S  S13  1  0.35721662  0.65208683  0.27377001  1.0
  S  S13  1  0.36649969  0.65609869  0.36455673  1.0
  S  S13  1  0.15548982  0.68897071  0.41871845  1.0
  S  S13  1  0.35354326  0.65514245  0.60130514  1.0
  S  S13  1  0.36114726  0.66690911  0.82753288  1.0
  S  S13  1  0.36035301  0.65834058  0.93110529  1.0
  S  S13  1  0.36309848  0.81569632  0.26970712  1.0
  S  S13  1  0.36072884  0.82982572  0.48840498  1.0
  S  S13  1  0.30300646  0.70472510  0.77702033  1.0
  S  S13  1  0.36428167  0.81819811  0.71974045  1.0
  S  S13  1  0.35969061  0.82475585  0.81751403  1.0
  S  S13  1  0.35799168  0.00258237  0.04493879  1.0
  S  S13  1  0.36103839  0.99119385  0.15688856  1.0
  S  S13  1  0.36605972  0.99297817  0.26841383  1.0
  S  S13  1  0.35791132  0.99124591  0.37995252  1.0
  S  S13  1  0.36236429  0.99050322  0.48744688  1.0
  S  S13  1  0.36495234  0.99025269  0.71543452  1.0
  S  S13  1  0.36349740  0.98040199  0.94750049  1.0
  S  S13  1  0.56048783  0.15396639  0.04425435  1.0
  S  S13  1  0.56267591  0.15016097  0.27153638  1.0
  S  S13  1  0.56294275  0.15212252  0.36917501  1.0
  S  S13  1  0.56080677  0.15093973  0.59751783  1.0
  S  S13  1  0.56369956  0.15596750  0.93206542  1.0
  S  S13  1  0.56300213  0.32328512  0.04001868  1.0
  S  S13  1  0.55392586  0.32841434  0.15406453  1.0
  S  S13  1  0.55028069  0.33077364  0.26679840  1.0
  S  S13  1  0.55658949  0.32207978  0.38479950  1.0
  S  S13  1  0.61164422  0.49048804  0.69853316  1.0
  S  S13  1  0.51168222  0.41718111  0.58108547  1.0
  S  S13  1  0.65967259  0.40980094  0.71768765  1.0
  S  S13  1  0.56401642  0.32477266  0.81942074  1.0
  S  S13  1  0.55733569  0.49859935  0.05163659  1.0
  S  S13  1  0.45518490  0.70617929  0.07597649  1.0
  S  S13  1  0.60215269  0.61884609  0.22528367  1.0
  S  S13  1  0.56001550  0.49750708  0.83349112  1.0
  S  S13  1  0.55624097  0.66636979  0.04545178  1.0
  S  S13  1  0.56924703  0.66674933  0.14805384  1.0
  S  S13  1  0.56252317  0.64834858  0.26588604  1.0
  S  S13  1  0.71429593  0.49818606  0.41704378  1.0
  S  S13  1  0.56461303  0.65137285  0.48945295  1.0
  S  S13  1  0.55957380  0.66141904  0.60889167  1.0
  S  S13  1  0.56223576  0.65135848  0.71350239  1.0
  S  S13  1  0.56604169  0.65411488  0.94141951  1.0
  S  S13  1  0.55954294  0.82174152  0.14717925  1.0
  S  S13  1  0.56352054  0.83637849  0.37897484  1.0
  S  S13  1  0.55904631  0.82790551  0.49414379  1.0
  S  S13  1  0.56831430  0.81885327  0.72089240  1.0
  S  S13  1  0.56075419  0.83626716  0.82622156  1.0
  S  S13  1  0.56350072  0.98513201  0.05059797  1.0
  S  S13  1  0.55532411  0.99370449  0.26518391  1.0
  S  S13  1  0.36044116  0.16445723  0.48725228  1.0
  S  S13  1  0.56803129  0.99015880  0.49080375  1.0
  S  S13  1  0.57325236  0.99377387  0.60090902  1.0
  S  S13  1  0.60069865  0.19935748  0.60565702  1.0
  S  S13  1  0.77279972  0.15722799  0.14858528  1.0
  S  S13  1  0.76174418  0.16187116  0.37796820  1.0
  S  S13  1  0.61227666  0.24203618  0.30787333  1.0
  S  S13  1  0.76604357  0.15667086  0.84014910  1.0
  S  S13  1  0.95519636  0.11800014  0.95525220  1.0
  S  S13  1  0.75690258  0.32599778  0.04722957  1.0
  S  S13  1  0.75327111  0.32706851  0.26537127  1.0
  S  S13  1  0.76999433  0.32711911  0.36665857  1.0
  S  S13  1  0.76435877  0.31450391  0.49266276  1.0
  S  S13  1  0.77635599  0.33339804  0.60171754  1.0
  S  S13  1  0.75752742  0.33498488  0.71390050  1.0
  S  S13  1  0.76118787  0.32308894  0.81860570  1.0
  S  S13  1  0.76439050  0.32383115  0.93556977  1.0
  S  S13  1  0.76715162  0.49034605  0.04928034  1.0
  S  S13  1  0.76638027  0.49469108  0.15879935  1.0
  S  S13  1  0.76074575  0.49212247  0.27293514  1.0
  S  S13  1  0.76943437  0.49565184  0.48532012  1.0
  S  S13  1  0.76084874  0.49083614  0.60687460  1.0
  S  S13  1  0.60989290  0.32013456  0.03033187  1.0
  S  S13  1  0.76154828  0.66859598  0.25413494  1.0
  S  S13  1  0.76281354  0.65530139  0.38302149  1.0
  S  S13  1  0.75914584  0.65374395  0.49608620  1.0
  S  S13  1  0.76890498  0.65910573  0.71200577  1.0
  S  S13  1  0.77383412  0.66945523  0.82832526  1.0
  S  S13  1  0.76050948  0.65569399  0.94356988  1.0
  S  S13  1  0.76491920  0.81933140  0.04450128  1.0
  S  S13  1  0.76197916  0.82444229  0.15461805  1.0
  S  S13  1  0.90614344  0.66988139  0.29005092  1.0
  S  S13  1  0.70641692  0.61886263  0.50771857  1.0
  S  S13  1  0.76428139  0.67441249  0.43294015  1.0
  S  S13  1  0.76444043  0.82220974  0.59933145  1.0
  S  S13  1  0.75799127  0.83199871  0.71285870  1.0
  S  S13  1  0.68772435  0.86860314  0.88358442  1.0
  S  S13  1  0.69780008  0.62503354  0.93712701  1.0
  S  S13  1  0.75638879  0.98293130  0.04365649  1.0
  S  S13  1  0.75408511  0.98326441  0.26673724  1.0
  S  S13  1  0.76408611  0.98749020  0.60328906  1.0
  S  S13  1  0.95144947  0.08698805  0.90160538  1.0
  S  S13  1  0.97259261  0.15229660  0.26423221  1.0
  S  S13  1  0.96527779  0.15879298  0.48673614  1.0
  S  S13  1  0.96097284  0.15223636  0.59301566  1.0
  S  S13  1  0.72140421  0.15785664  0.86019936  1.0
  S  S13  1  0.97151294  0.32337285  0.15700982  1.0
  S  S13  1  0.95736529  0.31838279  0.38939307  1.0
  S  S13  1  0.80950336  0.42287854  0.39426759  1.0
  S  S13  1  0.96581377  0.31882488  0.71472684  1.0
  S  S13  1  0.96000502  0.47727771  0.05186301  1.0
  S  S13  1  0.96528894  0.48501959  0.37713762  1.0
  S  S13  1  0.96777277  0.49383604  0.48095835  1.0
  S  S13  1  0.95646350  0.50433274  0.60168094  1.0
  S  S13  1  0.96526133  0.50592397  0.70553598  1.0
  S  S13  1  0.96427752  0.64773529  0.15357130  1.0
  S  S13  1  0.96539427  0.65853139  0.27045015  1.0
  S  S13  1  0.96852315  0.66111283  0.49224839  1.0
  S  S13  1  0.96347282  0.65624313  0.59629108  1.0
  S  S13  1  0.97152124  0.66746951  0.70594645  1.0
  S  S13  1  0.96283997  0.65123195  0.82094149  1.0
  S  S13  1  0.85267435  0.86961637  0.01861948  1.0
  S  S13  1  0.95714655  0.81775165  0.16177293  1.0
  S  S13  1  0.97179254  0.82958490  0.26555167  1.0
  S  S13  1  0.96863564  0.82124312  0.38483573  1.0
  S  S13  1  0.95951790  0.82253813  0.59904616  1.0
  S  S13  1  0.96079867  0.99848629  0.25948700  1.0
  S  S13  1  0.95874816  0.99323060  0.49309638  1.0
  S  S13  1  0.95400905  0.98822467  0.59179741  1.0
  S  S13  1  0.90902814  0.74037265  0.69718279  1.0
  S  S13  1  0.95108292  0.99700771  0.82077012  1.0
  S  S13  1  0.99829816  0.95727587  0.89621411  1.0
  S  S14  1  0.05835698  0.15468083  0.00868685  1.0
  S  S14  1  0.05919129  0.15096915  0.12072885  1.0
  S  S14  1  0.05922524  0.16029534  0.24131786  1.0
  S  S14  1  0.06149223  0.15585543  0.34406623  1.0
  S  S14  1  0.06315469  0.15846541  0.45114563  1.0
  S  S14  1  0.05369117  0.16200895  0.67099634  1.0
  S  S14  1  0.06982100  0.15745547  0.78475334  1.0
  S  S14  1  0.06016621  0.16061374  0.89395863  1.0
  S  S14  1  0.05753824  0.33039571  0.00410145  1.0
  S  S14  1  0.20273687  0.28973416  0.89252533  1.0
  S  S14  1  0.06368631  0.31539038  0.22541669  1.0
  S  S14  1  0.05477318  0.32274784  0.34494328  1.0
  S  S14  1  0.05638522  0.32501778  0.68024660  1.0
  S  S14  1  0.05753414  0.32138731  0.79399901  1.0
  S  S14  1  0.05789071  0.32844901  0.90542764  1.0
  S  S14  1  0.05662172  0.48630046  0.00852808  1.0
  S  S14  1  0.26356508  0.32103356  0.13304674  1.0
  S  S14  1  0.06531748  0.48567560  0.22379712  1.0
  S  S14  1  0.06220548  0.49570315  0.35314665  1.0
  S  S14  1  0.06289848  0.49155564  0.44891422  1.0
  S  S14  1  0.06332716  0.49697956  0.55522671  1.0
  S  S14  1  0.06289288  0.65349358  0.00239467  1.0
  S  S14  1  0.07836538  0.65899158  0.11709538  1.0
  S  S14  1  0.06538415  0.65872172  0.22906019  1.0
  S  S14  1  0.05610695  0.66040231  0.34228182  1.0
  S  S14  1  0.06395109  0.65499051  0.44786583  1.0
  S  S14  1  0.06848274  0.64673922  0.57506673  1.0
  S  S14  1  0.06701621  0.65967061  0.67508005  1.0
  S  S14  1  0.06054356  0.82717645  0.01078078  1.0
  S  S14  1  0.05773158  0.82677904  0.12230912  1.0
  S  S14  1  0.05708669  0.84202642  0.23407771  1.0
  S  S14  1  0.05371696  0.82022019  0.34695414  1.0
  S  S14  1  0.05891349  0.82032061  0.57294457  1.0
  S  S14  1  0.06336762  0.82270895  0.88359716  1.0
  S  S14  1  0.06561687  0.99312753  0.23909588  1.0
  S  S14  1  0.05705549  0.99076258  0.34474872  1.0
  S  S14  1  0.06878996  0.99460582  0.56149122  1.0
  S  S14  1  0.06937815  0.98953512  0.67900687  1.0
  S  S14  1  0.06634977  0.00166574  0.79031681  1.0
  S  S14  1  0.27559359  0.15788805  0.01171342  1.0
  S  S14  1  0.25834572  0.16146683  0.12298488  1.0
  S  S14  1  0.26763741  0.15848302  0.23096949  1.0
  S  S14  1  0.26380002  0.15560942  0.45722627  1.0
  S  S14  1  0.25972853  0.15119478  0.55918908  1.0
  S  S14  1  0.25665415  0.15648735  0.67184058  1.0
  S  S14  1  0.31271538  0.90714624  0.75260022  1.0
  S  S14  1  0.26443066  0.15772946  0.90544433  1.0
  S  S14  1  0.25718741  0.33391940  0.12034081  1.0
  S  S14  1  0.25824934  0.33209037  0.23640722  1.0
  S  S14  1  0.25715033  0.32858106  0.34509929  1.0
  S  S14  1  0.26912174  0.32402581  0.68116581  1.0
  S  S14  1  0.26031653  0.32509085  0.89730445  1.0
  S  S14  1  0.25453894  0.50086113  0.11480425  1.0
  S  S14  1  0.26386152  0.49101902  0.34182352  1.0
  S  S14  1  0.26590244  0.48828601  0.56783130  1.0
  S  S14  1  0.46484698  0.65498141  0.62586284  1.0
  S  S14  1  0.10682651  0.38035142  0.66523945  1.0
  S  S14  1  0.26308099  0.49412273  0.90273907  1.0
  S  S14  1  0.27124910  0.66266178  0.01258882  1.0
  S  S14  1  0.25705516  0.67216361  0.11831095  1.0
  S  S14  1  0.24924257  0.64585504  0.34489282  1.0
  S  S14  1  0.25602977  0.65984394  0.44610227  1.0
  S  S14  1  0.26398769  0.65961489  0.56821730  1.0
  S  S14  1  0.25763997  0.66449620  0.78637745  1.0
  S  S14  1  0.26015651  0.65288793  0.89902763  1.0
  S  S14  1  0.27096234  0.82209664  0.00361209  1.0
  S  S14  1  0.25773121  0.82468641  0.11657182  1.0
  S  S14  1  0.26726445  0.81753969  0.23142200  1.0
  S  S14  1  0.26756532  0.82253328  0.45662476  1.0
  S  S14  1  0.26203077  0.82410574  0.56821080  1.0
  S  S14  1  0.24967223  0.83188274  0.66537061  1.0
  S  S14  1  0.26770802  0.82381458  0.79040226  1.0
  S  S14  1  0.27069030  0.83300119  0.90357697  1.0
  S  S14  1  0.26104964  0.99083881  0.01437217  1.0
  S  S14  1  0.26342488  0.99247001  0.23429531  1.0
  S  S14  1  0.26048414  0.98457681  0.34662749  1.0
  S  S14  1  0.26161300  0.99153256  0.44436085  1.0
  S  S14  1  0.26293389  0.98389582  0.67412396  1.0
  S  S14  1  0.26879822  0.98742599  0.78939160  1.0
  S  S14  1  0.15889257  0.15636885  0.68509057  1.0
  S  S14  1  0.35326752  0.07988548  0.25837932  1.0
  S  S14  1  0.46395987  0.16158813  0.34404027  1.0
  S  S14  1  0.45368188  0.15950849  0.45372957  1.0
  S  S14  1  0.47548908  0.17824499  0.67755562  1.0
  S  S14  1  0.45913963  0.33049769  0.00053769  1.0
  S  S14  1  0.45986074  0.31647201  0.23500981  1.0
  S  S14  1  0.45647606  0.32462067  0.45399294  1.0
  S  S14  1  0.46237558  0.32348980  0.78940066  1.0
  S  S14  1  0.45625857  0.33694816  0.89304552  1.0
  S  S14  1  0.46226890  0.49599118  0.12702843  1.0
  S  S14  1  0.35387077  0.24030987  0.47701434  1.0
  S  S14  1  0.46267110  0.49461583  0.46332612  1.0
  S  S14  1  0.45995390  0.48752750  0.78458824  1.0
  S  S14  1  0.47162837  0.49619285  0.89898061  1.0
  S  S14  1  0.46886733  0.65584738  0.01536207  1.0
  S  S14  1  0.45563613  0.66186883  0.12645276  1.0
  S  S14  1  0.45894417  0.66021577  0.33986737  1.0
  S  S14  1  0.46403536  0.65677036  0.68091716  1.0
  S  S14  1  0.45620800  0.65352358  0.79467849  1.0
  S  S14  1  0.45024176  0.82246688  0.00901502  1.0
  S  S14  1  0.71428229  0.74012644  0.29942386  1.0
  S  S14  1  0.46864186  0.83277451  0.34105634  1.0
  S  S14  1  0.45358058  0.82822934  0.45522328  1.0
  S  S14  1  0.45918990  0.81447239  0.89719870  1.0
  S  S14  1  0.47013758  0.99857314  0.11711101  1.0
  S  S14  1  0.45582725  0.99470987  0.22838189  1.0
  S  S14  1  0.45575660  0.99249515  0.46265638  1.0
  S  S14  1  0.47042093  0.98366815  0.56202061  1.0
  S  S14  1  0.47478877  0.98857588  0.68535822  1.0
  S  S14  1  0.46761431  0.99845614  0.78572963  1.0
  S  S14  1  0.66044194  0.15415996  0.01413989  1.0
  S  S14  1  0.65435019  0.15870590  0.12980250  1.0
  S  S14  1  0.66548807  0.16579989  0.22305647  1.0
  S  S14  1  0.65556017  0.16884760  0.34562675  1.0
  S  S14  1  0.65632103  0.16322530  0.45185353  1.0
  S  S14  1  0.67817018  0.15943334  0.89250441  1.0
  S  S14  1  0.55439825  0.29452398  0.37086757  1.0
  S  S14  1  0.65868631  0.32663631  0.22867338  1.0
  S  S14  1  0.66123043  0.31791717  0.45900038  1.0
  S  S14  1  0.65678255  0.33006662  0.56368810  1.0
  S  S14  1  0.66321443  0.31889911  0.68088031  1.0
  S  S14  1  0.66338891  0.48970842  0.00005603  1.0
  S  S14  1  0.66307914  0.49290029  0.11254294  1.0
  S  S14  1  0.65750223  0.49080139  0.44163092  1.0
  S  S14  1  0.66605402  0.49005952  0.56691620  1.0
  S  S14  1  0.65721691  0.58864073  0.50205135  1.0
  S  S14  1  0.66455182  0.49672630  0.78323715  1.0
  S  S14  1  0.66210524  0.49556062  0.88909890  1.0
  S  S14  1  0.65918193  0.66085692  0.01225800  1.0
  S  S14  1  0.40841491  0.58756438  0.25261956  1.0
  S  S14  1  0.66504290  0.66295526  0.44258258  1.0
  S  S14  1  0.66056907  0.65660543  0.67712720  1.0
  S  S14  1  0.66355568  0.64687954  0.78826431  1.0
  S  S14  1  0.66100578  0.81349302  0.01208970  1.0
  S  S14  1  0.65610953  0.82357022  0.11974364  1.0
  S  S14  1  0.65330342  0.81581517  0.23498161  1.0
  S  S14  1  0.65950561  0.82397629  0.34351897  1.0
  S  S14  1  0.50374260  0.99055292  0.69384193  1.0
  S  S14  1  0.67188018  0.81911079  0.68176991  1.0
  S  S14  1  0.66251104  0.81945792  0.89523033  1.0
  S  S14  1  0.66397980  0.98918052  0.00554392  1.0
  S  S14  1  0.66423595  0.98672431  0.23104945  1.0
  S  S14  1  0.65901048  0.99784611  0.34614543  1.0
  S  S14  1  0.65914492  0.98952604  0.67629733  1.0
  S  S14  1  0.86092835  0.15651654  0.00864263  1.0
  S  S14  1  0.86940521  0.15695059  0.12253391  1.0
  S  S14  1  0.87471583  0.14955731  0.23404822  1.0
  S  S14  1  0.86234324  0.15815836  0.34374804  1.0
  S  S14  1  0.85803358  0.16163155  0.55515640  1.0
  S  S14  1  0.87344289  0.16525595  0.67824967  1.0
  S  S14  1  0.01777058  0.99124852  0.63894232  1.0
  S  S14  1  0.85795654  0.32941327  0.00675651  1.0
  S  S14  1  0.86643967  0.32611088  0.12080606  1.0
  S  S14  1  0.85507499  0.32673080  0.55910338  1.0
  S  S14  1  0.86210600  0.33690762  0.77921422  1.0
  S  S14  1  0.66178662  0.48916707  0.05967813  1.0
  S  S14  1  0.85837796  0.50236278  0.13081482  1.0
  S  S14  1  0.69477642  0.70380573  0.71721673  1.0
  S  S14  1  0.85913366  0.48056615  0.91028923  1.0
  S  S14  1  0.86799257  0.65540808  0.01139310  1.0
  S  S14  1  0.85680323  0.66345539  0.12020192  1.0
  S  S14  1  0.86154764  0.65567218  0.23530034  1.0
  S  S14  1  0.87504209  0.65760166  0.34128364  1.0
  S  S14  1  0.85781130  0.65868480  0.45332104  1.0
  S  S14  1  0.86056174  0.66020206  0.66691799  1.0
  S  S14  1  0.84726725  0.68919295  0.92377211  1.0
  S  S14  1  0.85718935  0.83003504  0.00580479  1.0
  S  S14  1  0.86069528  0.81329950  0.12646869  1.0
  S  S14  1  0.85497950  0.82553838  0.23671332  1.0
  S  S14  1  0.86461558  0.81455210  0.57027016  1.0
  S  S14  1  0.85386197  0.82670162  0.67320202  1.0
  S  S14  1  0.85567963  0.99202871  0.45097024  1.0
  S  S14  1  0.87283315  0.98886057  0.55885497  1.0
  S  S14  1  0.85803270  0.99292759  0.67706550  1.0
  S  S14  1  0.86041311  0.99589114  0.77718878  1.0
  S  S14  1  0.86729837  0.98747330  0.90086547  1.0
  S  S15  1  0.14607213  0.07151017  0.09674874  1.0
  S  S15  1  0.13163002  0.07006001  0.21950109  1.0
  S  S15  1  0.12611875  0.07252954  0.32967589  1.0
  S  S15  1  0.14479177  0.06934715  0.43216038  1.0
  S  S15  1  0.14205214  0.08598986  0.55503159  1.0
  S  S15  1  0.14576815  0.06982702  0.66957363  1.0
  S  S15  1  0.13379137  0.06632146  0.76860089  1.0
  S  S15  1  0.14484960  0.08040405  0.87869852  1.0
  S  S15  1  0.13893455  0.24627074  0.21323709  1.0
  S  S15  1  0.13600551  0.23852677  0.65748956  1.0
  S  S15  1  0.28686820  0.07638861  0.53347501  1.0
  S  S15  1  0.13807395  0.23468069  0.88057813  1.0
  S  S15  1  0.15058886  0.23639042  0.99615825  1.0
  S  S15  1  0.13598736  0.40932896  0.09417524  1.0
  S  S15  1  0.14686769  0.41105387  0.32713289  1.0
  S  S15  1  0.12999754  0.40579254  0.88134664  1.0
  S  S15  1  0.13709332  0.41182420  0.00186472  1.0
  S  S15  1  0.13999914  0.57363658  0.09777445  1.0
  S  S15  1  0.13345178  0.57066940  0.20804923  1.0
  S  S15  1  0.13766009  0.57776986  0.32537870  1.0
  S  S15  1  0.13877642  0.57672909  0.44900792  1.0
  S  S15  1  0.13387346  0.57614246  0.53604278  1.0
  S  S15  1  0.13556841  0.57089851  0.65290246  1.0
  S  S15  1  0.13156040  0.56814058  0.76865507  1.0
  S  S15  1  0.14102614  0.57167280  0.86805533  1.0
  S  S15  1  0.14268377  0.57960965  0.99735778  1.0
  S  S15  1  0.33238160  0.62131372  0.87305484  1.0
  S  S15  1  0.13443214  0.73372598  0.32033959  1.0
  S  S15  1  0.13622477  0.74373103  0.43005023  1.0
  S  S15  1  0.13678240  0.73751636  0.53620649  1.0
  S  S15  1  0.13486643  0.73520770  0.64585364  1.0
  S  S15  1  0.14027817  0.74150740  0.88156633  1.0
  S  S15  1  0.13956857  0.73637548  0.99527918  1.0
  S  S15  1  0.12833073  0.90728371  0.09879831  1.0
  S  S15  1  0.13264384  0.91619331  0.21334312  1.0
  S  S15  1  0.13045031  0.90201339  0.66861123  1.0
  S  S15  1  0.29761938  0.11319030  0.67296555  1.0
  S  S15  1  0.12862507  0.92038287  0.87105071  1.0
  S  S15  1  0.14005046  0.90678647  0.98163601  1.0
  S  S15  1  0.33837095  0.08213290  0.19964224  1.0
  S  S15  1  0.33359683  0.08041713  0.32217489  1.0
  S  S15  1  0.34038526  0.08090327  0.43682810  1.0
  S  S15  1  0.33905013  0.08229071  0.54259587  1.0
  S  S15  1  0.33739724  0.08139104  0.65271175  1.0
  S  S15  1  0.34459338  0.07813916  0.76173120  1.0
  S  S15  1  0.33651358  0.06793577  0.87956785  1.0
  S  S15  1  0.33558892  0.07110594  0.98051522  1.0
  S  S15  1  0.33323912  0.23791858  0.20810653  1.0
  S  S15  1  0.33039028  0.24316361  0.42928764  1.0
  S  S15  1  0.34208228  0.24953774  0.54436643  1.0
  S  S15  1  0.34534837  0.24217573  0.76090549  1.0
  S  S15  1  0.34486749  0.25290371  0.88580196  1.0
  S  S15  1  0.33349547  0.23232375  0.98752701  1.0
  S  S15  1  0.34984277  0.40254005  0.10579264  1.0
  S  S15  1  0.33703929  0.41488639  0.31561216  1.0
  S  S15  1  0.33470755  0.40138656  0.42926945  1.0
  S  S15  1  0.34115748  0.40289191  0.54734550  1.0
  S  S15  1  0.33775844  0.40389721  0.65285962  1.0
  S  S15  1  0.33914706  0.57621374  0.10153080  1.0
  S  S15  1  0.33646524  0.57336809  0.43456828  1.0
  S  S15  1  0.34466481  0.57958552  0.54505375  1.0
  S  S15  1  0.33207921  0.57381736  0.76297658  1.0
  S  S15  1  0.33350327  0.56498717  0.87903849  1.0
  S  S15  1  0.34795853  0.57763858  0.99411427  1.0
  S  S15  1  0.34342929  0.65543818  0.43298102  1.0
  S  S15  1  0.33260028  0.74019435  0.32414817  1.0
  S  S15  1  0.33213411  0.74870855  0.42816142  1.0
  S  S15  1  0.35169472  0.74548783  0.54564753  1.0
  S  S15  1  0.34715963  0.72914372  0.65531881  1.0
  S  S15  1  0.33531564  0.74193133  0.76922052  1.0
  S  S15  1  0.33855134  0.74997993  0.88078315  1.0
  S  S15  1  0.33989618  0.74584617  0.98319357  1.0
  S  S15  1  0.33916022  0.90953387  0.09432723  1.0
  S  S15  1  0.15442311  0.02230471  0.30949079  1.0
  S  S15  1  0.14257671  0.07041563  0.32556048  1.0
  S  S15  1  0.34220686  0.92244998  0.44523494  1.0
  S  S15  1  0.28084118  0.90805708  0.63393426  1.0
  S  S15  1  0.34118500  0.91830866  0.76081783  1.0
  S  S15  1  0.09968447  0.69752251  0.11571053  1.0
  S  S15  1  0.53993833  0.08273356  0.09636105  1.0
  S  S15  1  0.53742784  0.07521126  0.20893020  1.0
  S  S15  1  0.54200965  0.08250306  0.33570632  1.0
  S  S15  1  0.53958204  0.08924048  0.43076094  1.0
  S  S15  1  0.54181787  0.07335884  0.54015877  1.0
  S  S15  1  0.54381086  0.07578236  0.77550705  1.0
  S  S15  1  0.54175366  0.07865379  0.88254574  1.0
  S  S15  1  0.54291475  0.08200302  0.98800775  1.0
  S  S15  1  0.54062534  0.25262953  0.10135663  1.0
  S  S15  1  0.58501338  0.40591961  0.42129177  1.0
  S  S15  1  0.53615721  0.24414091  0.32097058  1.0
  S  S15  1  0.54334060  0.24394723  0.44243438  1.0
  S  S15  1  0.54442689  0.24249707  0.55302901  1.0
  S  S15  1  0.53627493  0.24449311  0.87415565  1.0
  S  S15  1  0.54065474  0.41084336  0.21478000  1.0
  S  S15  1  0.53068994  0.39759709  0.42848644  1.0
  S  S15  1  0.43997171  0.29576384  0.49636228  1.0
  S  S15  1  0.53546059  0.41096934  0.76417060  1.0
  S  S15  1  0.50680516  0.61250575  0.72739629  1.0
  S  S15  1  0.53638472  0.41938781  0.99111894  1.0
  S  S15  1  0.53861766  0.57097636  0.11359217  1.0
  S  S15  1  0.54420175  0.57792250  0.21434543  1.0
  S  S15  1  0.53364150  0.57757279  0.32123061  1.0
  S  S15  1  0.53849135  0.58094016  0.43248000  1.0
  S  S15  1  0.53773229  0.58487401  0.54097503  1.0
  S  S15  1  0.52921849  0.57152395  0.65770591  1.0
  S  S15  1  0.54094735  0.57183960  0.78807346  1.0
  S  S15  1  0.53838939  0.57729008  0.87207573  1.0
  S  S15  1  0.52823620  0.56269454  0.99924562  1.0
  S  S15  1  0.54353282  0.74302450  0.31692717  1.0
  S  S15  1  0.53733807  0.75019373  0.42729574  1.0
  S  S15  1  0.53280844  0.74013779  0.54331922  1.0
  S  S15  1  0.34116469  0.61157157  0.71335562  1.0
  S  S15  1  0.54652135  0.94810852  0.63320932  1.0
  S  S15  1  0.53123211  0.74345199  0.88118525  1.0
  S  S15  1  0.54081160  0.74728773  0.99333522  1.0
  S  S15  1  0.54171335  0.90178472  0.44230364  1.0
  S  S15  1  0.53156640  0.91195311  0.54205805  1.0
  S  S15  1  0.52890430  0.90623155  0.76734373  1.0
  S  S15  1  0.30692375  0.71243725  0.88818277  1.0
  S  S15  1  0.53054566  0.90175378  0.99441526  1.0
  S  S15  1  0.74101528  0.07267154  0.09492654  1.0
  S  S15  1  0.74260408  0.06845921  0.20994245  1.0
  S  S15  1  0.73984378  0.06419349  0.32873706  1.0
  S  S15  1  0.74936289  0.07705955  0.43446681  1.0
  S  S15  1  0.73608448  0.07528984  0.53805742  1.0
  S  S15  1  0.73186708  0.07421841  0.65771440  1.0
  S  S15  1  0.73028850  0.06420117  0.76522955  1.0
  S  S15  1  0.73077388  0.08045285  0.86000619  1.0
  S  S15  1  0.73299838  0.08056653  0.99093293  1.0
  S  S15  1  0.73839822  0.24224901  0.09790540  1.0
  S  S15  1  0.74294745  0.23955422  0.20792083  1.0
  S  S15  1  0.74075870  0.23128756  0.43310094  1.0
  S  S15  1  0.73488925  0.24118291  0.76532880  1.0
  S  S15  1  0.74314882  0.24933264  0.99368499  1.0
  S  S15  1  0.73592823  0.41312353  0.10543788  1.0
  S  S15  1  0.74402156  0.41463316  0.20099086  1.0
  S  S15  1  0.73761361  0.41157293  0.31547658  1.0
  S  S15  1  0.73593244  0.32838117  0.64906422  1.0
  S  S15  1  0.94075759  0.21455560  0.60863424  1.0
  S  S15  1  0.85580173  0.54300813  0.79304578  1.0
  S  S15  1  0.73553237  0.39465196  0.87329834  1.0
  S  S15  1  0.74356277  0.40602015  0.99237666  1.0
  S  S15  1  0.73868176  0.58391480  0.09031778  1.0
  S  S15  1  0.73924041  0.57841307  0.20776116  1.0
  S  S15  1  0.74227376  0.56785517  0.32934266  1.0
  S  S15  1  0.72719758  0.57065778  0.43507080  1.0
  S  S15  1  0.73856661  0.56500155  0.55144709  1.0
  S  S15  1  0.74180115  0.58787897  0.66031923  1.0
  S  S15  1  0.73398303  0.56843422  0.76502971  1.0
  S  S15  1  0.74836711  0.57665630  0.87959159  1.0
  S  S15  1  0.74436657  0.56928187  0.99314667  1.0
  S  S15  1  0.74005770  0.74885774  0.10596442  1.0
  S  S15  1  0.73718700  0.73461870  0.20935659  1.0
  S  S15  1  0.74245554  0.75532391  0.31526296  1.0
  S  S15  1  0.73104617  0.73345796  0.54158877  1.0
  S  S15  1  0.74221043  0.75104082  0.64555593  1.0
  S  S15  1  0.73146350  0.73456325  0.76326291  1.0
  S  S15  1  0.53841102  0.57677291  0.99144496  1.0
  S  S15  1  0.49038176  0.11486657  0.34077573  1.0
  S  S15  1  0.74545874  0.91945242  0.21456597  1.0
  S  S15  1  0.64672968  0.75106383  0.69842331  1.0
  S  S15  1  0.73483130  0.92085068  0.64360528  1.0
  S  S15  1  0.74033548  0.91363785  0.77002370  1.0
  S  S15  1  0.74027603  0.91253946  0.88210425  1.0
  S  S15  1  0.93582888  0.07471776  0.20502136  1.0
  S  S15  1  0.94262780  0.08524582  0.33373863  1.0
  S  S15  1  0.93338099  0.06587765  0.54781632  1.0
  S  S15  1  0.93196268  0.07950747  0.64399052  1.0
  S  S15  1  0.94290759  0.07729920  0.75752391  1.0
  S  S15  1  0.93963467  0.07196090  0.87862594  1.0
  S  S15  1  0.94148383  0.06166622  0.98764458  1.0
  S  S15  1  0.09955554  0.36623634  0.33142138  1.0
  S  S15  1  0.94274405  0.23250060  0.65529015  1.0
  S  S15  1  0.89894037  0.20070095  0.60578796  1.0
  S  S15  1  0.94817207  0.24898691  0.00225671  1.0
  S  S15  1  0.05319638  0.53933759  0.96240947  1.0
  S  S15  1  0.04528326  0.41314058  0.43361715  1.0
  S  S15  1  0.94669849  0.40177387  0.43066793  1.0
  S  S15  1  0.20242199  0.33014078  0.40332001  1.0
  S  S15  1  0.94256673  0.40347561  0.65374965  1.0
  S  S15  1  0.95021486  0.41977189  0.88998314  1.0
  S  S15  1  0.93444823  0.40792896  0.99140212  1.0
  S  S15  1  0.94181523  0.57428609  0.11155318  1.0
  S  S15  1  0.94310726  0.58511549  0.20598187  1.0
  S  S15  1  0.93538887  0.57786131  0.32104377  1.0
  S  S15  1  0.94305840  0.58250278  0.43299455  1.0
  S  S15  1  0.93945533  0.59210505  0.55274993  1.0
  S  S15  1  0.94496540  0.57790052  0.66385327  1.0
  S  S15  1  0.94505776  0.57592876  0.77290338  1.0
  S  S15  1  0.93599202  0.57603544  0.88171029  1.0
  S  S15  1  0.92867809  0.57723016  0.98369069  1.0
  S  S15  1  0.93199790  0.75021876  0.09676819  1.0
  S  S15  1  0.70109822  0.53326193  0.44108576  1.0
  S  S15  1  0.93806694  0.73474564  0.43413137  1.0
  S  S15  1  0.89736826  0.81906925  0.53554565  1.0
  S  S15  1  0.94789775  0.73825443  0.65866217  1.0
  S  S15  1  0.93099146  0.73421560  0.76889942  1.0
  S  S15  1  0.93952272  0.73958432  0.87293980  1.0
  S  S15  1  0.93365551  0.74307803  0.99846711  1.0
  S  S15  1  0.94068755  0.90735405  0.09546395  1.0
  S  S15  1  0.15655359  0.87801793  0.12624098  1.0
  S  S15  1  0.69920673  0.02577470  0.66957487  1.0
  S  S15  1  0.89784278  0.83210756  0.65093701  1.0
  S  S15  1  0.93547335  0.90019600  0.66526288  1.0
  S  S15  1  0.93920676  0.90389171  0.89007685  1.0
  S  S15  1  0.93445437  0.90288738  0.99348791  1.0
  S  S16  1  0.03098139  0.01318648  0.17017924  1.0
  S  S16  1  0.20125549  0.16859329  0.22366516  1.0
  S  S16  1  0.02872788  0.00689607  0.41089166  1.0
  S  S16  1  0.03751525  0.00573961  0.50627205  1.0
  S  S16  1  0.04371831  0.03536003  0.36993898  1.0
  S  S16  1  0.03940661  0.01227951  0.73587426  1.0
  S  S16  1  0.04054846  0.00671680  0.85471010  1.0
  S  S16  1  0.03280503  0.00673700  0.96443424  1.0
  S  S16  1  0.03482849  0.17787045  0.06954496  1.0
  S  S16  1  0.04330822  0.17449726  0.17164206  1.0
  S  S16  1  0.03546796  0.17740307  0.39715292  1.0
  S  S16  1  0.03702726  0.16795565  0.51785447  1.0
  S  S16  1  0.03736566  0.17401708  0.62500060  1.0
  S  S16  1  0.03118630  0.17624498  0.74158590  1.0
  S  S16  1  0.03806121  0.17607224  0.84462686  1.0
  S  S16  1  0.04277847  0.17485755  0.96767900  1.0
  S  S16  1  0.03863458  0.33764895  0.07357958  1.0
  S  S16  1  0.03761289  0.33718295  0.16905532  1.0
  S  S16  1  0.04131708  0.33847719  0.28052616  1.0
  S  S16  1  0.18225697  0.10259894  0.61524432  1.0
  S  S16  1  0.03974287  0.33978492  0.51656325  1.0
  S  S16  1  0.03694912  0.34155672  0.61726737  1.0
  S  S16  1  0.03506157  0.34233061  0.84395880  1.0
  S  S16  1  0.04349612  0.34469991  0.95083131  1.0
  S  S16  1  0.03108959  0.51233620  0.06715096  1.0
  S  S16  1  0.04231857  0.50975770  0.51962000  1.0
  S  S16  1  0.03685555  0.50959180  0.62515122  1.0
  S  S16  1  0.04275759  0.51105851  0.72223222  1.0
  S  S16  1  0.02899582  0.50318338  0.95633010  1.0
  S  S16  1  0.02815461  0.67345198  0.06889127  1.0
  S  S16  1  0.03821221  0.67756544  0.17386655  1.0
  S  S16  1  0.02948612  0.67760353  0.28357132  1.0
  S  S16  1  0.03631087  0.67189904  0.40752022  1.0
  S  S16  1  0.03162702  0.68203721  0.52281649  1.0
  S  S16  1  0.02962745  0.67091438  0.62568603  1.0
  S  S16  1  0.03116315  0.67511236  0.73492375  1.0
  S  S16  1  0.03380214  0.67459276  0.84866682  1.0
  S  S16  1  0.03847711  0.66806900  0.96231495  1.0
  S  S16  1  0.04441437  0.84254238  0.05999690  1.0
  S  S16  1  0.03516338  0.82951192  0.17457853  1.0
  S  S16  1  0.04279961  0.83613885  0.28235998  1.0
  S  S16  1  0.04258646  0.84730420  0.39575763  1.0
  S  S16  1  0.04102880  0.83608641  0.50752732  1.0
  S  S16  1  0.02859785  0.84389864  0.62057550  1.0
  S  S16  1  0.03412559  0.83974010  0.73083979  1.0
  S  S16  1  0.03538038  0.84829729  0.84318804  1.0
  S  S16  1  0.03729149  0.83263891  0.95484859  1.0
  S  S16  1  0.23663912  0.00343443  0.06974207  1.0
  S  S16  1  0.22695736  0.00403305  0.17814379  1.0
  S  S16  1  0.24795622  0.99865814  0.28804939  1.0
  S  S16  1  0.24148792  0.00846360  0.61341320  1.0
  S  S16  1  0.23763935  0.98796107  0.84468433  1.0
  S  S16  1  0.22998869  0.01138740  0.95143671  1.0
  S  S16  1  0.23374824  0.17464660  0.06676199  1.0
  S  S16  1  0.24218656  0.17244225  0.17636138  1.0
  S  S16  1  0.23100555  0.18561162  0.28667219  1.0
  S  S16  1  0.24109853  0.17808784  0.40085593  1.0
  S  S16  1  0.23665519  0.17174334  0.50990907  1.0
  S  S16  1  0.22797537  0.17347455  0.62899246  1.0
  S  S16  1  0.23676147  0.17584651  0.72605143  1.0
  S  S16  1  0.23998335  0.17043477  0.84926277  1.0
  S  S16  1  0.24317776  0.18190490  0.94637077  1.0
  S  S16  1  0.24128944  0.34514350  0.06351592  1.0
  S  S16  1  0.24343411  0.34282142  0.18393452  1.0
  S  S16  1  0.23158326  0.33906082  0.28674383  1.0
  S  S16  1  0.24333383  0.34306692  0.39351245  1.0
  S  S16  1  0.24802688  0.33885680  0.50434376  1.0
  S  S16  1  0.23446212  0.33586872  0.60769777  1.0
  S  S16  1  0.23956077  0.33012430  0.73657874  1.0
  S  S16  1  0.24239376  0.34259129  0.84336181  1.0
  S  S16  1  0.22978771  0.34544722  0.96483571  1.0
  S  S16  1  0.45703039  0.57523858  0.14825311  1.0
  S  S16  1  0.23750127  0.50494022  0.17752548  1.0
  S  S16  1  0.24828857  0.50761981  0.28514646  1.0
  S  S16  1  0.24208662  0.49816999  0.61779850  1.0
  S  S16  1  0.30502334  0.67142271  0.95700448  1.0
  S  S16  1  0.23989190  0.50031538  0.83445185  1.0
  S  S16  1  0.24346075  0.50253704  0.94629917  1.0
  S  S16  1  0.23496509  0.67995367  0.06348282  1.0
  S  S16  1  0.23327849  0.68101063  0.18213076  1.0
  S  S16  1  0.24580236  0.68185461  0.40444539  1.0
  S  S16  1  0.23372964  0.67764275  0.51640466  1.0
  S  S16  1  0.24674455  0.67467443  0.61822044  1.0
  S  S16  1  0.23268056  0.68110761  0.72826306  1.0
  S  S16  1  0.23846679  0.66881320  0.84221610  1.0
  S  S16  1  0.23967151  0.67527141  0.95825273  1.0
  S  S16  1  0.23059779  0.84049732  0.06316815  1.0
  S  S16  1  0.23364873  0.83737039  0.17257446  1.0
  S  S16  1  0.23922693  0.84273438  0.29233594  1.0
  S  S16  1  0.23911776  0.84126614  0.39910748  1.0
  S  S16  1  0.23704170  0.83505497  0.51101134  1.0
  S  S16  1  0.23922437  0.85205287  0.61476507  1.0
  S  S16  1  0.23002923  0.82300090  0.72067415  1.0
  S  S16  1  0.23672465  0.83589510  0.83906234  1.0
  S  S16  1  0.43620834  0.01112636  0.17774677  1.0
  S  S16  1  0.43781560  0.01231996  0.27719051  1.0
  S  S16  1  0.43943349  0.00778046  0.62232268  1.0
  S  S16  1  0.43567189  0.00744154  0.73795106  1.0
  S  S16  1  0.44551272  0.99667665  0.84623656  1.0
  S  S16  1  0.44355984  0.99923679  0.95325612  1.0
  S  S16  1  0.43885673  0.18585543  0.07718193  1.0
  S  S16  1  0.43253175  0.17572400  0.17517986  1.0
  S  S16  1  0.44025794  0.17485495  0.28240256  1.0
  S  S16  1  0.43155103  0.16871516  0.38396605  1.0
  S  S16  1  0.42967191  0.18069984  0.62476868  1.0
  S  S16  1  0.44024209  0.17227837  0.73178504  1.0
  S  S16  1  0.43613860  0.16397868  0.84664999  1.0
  S  S16  1  0.44342541  0.17004198  0.94982772  1.0
  S  S16  1  0.43923610  0.34238644  0.06933512  1.0
  S  S16  1  0.44624179  0.33553780  0.17797412  1.0
  S  S16  1  0.43649594  0.33688401  0.28544244  1.0
  S  S16  1  0.44467057  0.34702153  0.39827024  1.0
  S  S16  1  0.42586207  0.34552773  0.51106554  1.0
  S  S16  1  0.43281929  0.34535382  0.61571024  1.0
  S  S16  1  0.44192569  0.34212369  0.72397918  1.0
  S  S16  1  0.43474396  0.34336185  0.84633238  1.0
  S  S16  1  0.44263785  0.34734371  0.95293361  1.0
  S  S16  1  0.44027226  0.51674908  0.05979607  1.0
  S  S16  1  0.43485078  0.49797338  0.17271834  1.0
  S  S16  1  0.43869787  0.49398538  0.29057306  1.0
  S  S16  1  0.24764195  0.49961870  0.53120016  1.0
  S  S16  1  0.43696949  0.51718264  0.50761127  1.0
  S  S16  1  0.42643253  0.51435106  0.62385456  1.0
  S  S16  1  0.43794948  0.51042260  0.73246055  1.0
  S  S16  1  0.44568355  0.51154171  0.84063621  1.0
  S  S16  1  0.44492817  0.51803915  0.95919182  1.0
  S  S16  1  0.44331145  0.66810009  0.06957596  1.0
  S  S16  1  0.43949193  0.67574085  0.18001206  1.0
  S  S16  1  0.38892238  0.62939502  0.31471391  1.0
  S  S16  1  0.43202377  0.67507860  0.39284759  1.0
  S  S16  1  0.44716495  0.67748729  0.51374657  1.0
  S  S16  1  0.44422063  0.66833493  0.60848201  1.0
  S  S16  1  0.43716618  0.67909401  0.73093488  1.0
  S  S16  1  0.48064097  0.45282608  0.74357692  1.0
  S  S16  1  0.43556214  0.66535751  0.95845527  1.0
  S  S16  1  0.43474635  0.84415370  0.06002585  1.0
  S  S16  1  0.43900127  0.84038231  0.17885143  1.0
  S  S16  1  0.44077301  0.84703796  0.29416693  1.0
  S  S16  1  0.44018724  0.84211217  0.39504633  1.0
  S  S16  1  0.44172707  0.83606027  0.50819892  1.0
  S  S16  1  0.43572407  0.83357307  0.62391239  1.0
  S  S16  1  0.43666489  0.83570656  0.73258079  1.0
  S  S16  1  0.43826258  0.83698505  0.85559323  1.0
  S  S16  1  0.43958071  0.84160792  0.95059836  1.0
  S  S16  1  0.63816814  0.00843167  0.06532552  1.0
  S  S16  1  0.64490317  0.99666943  0.28553064  1.0
  S  S16  1  0.70252806  0.82689041  0.21102176  1.0
  S  S16  1  0.63488959  0.01331780  0.72725635  1.0
  S  S16  1  0.63434317  0.01283140  0.83890491  1.0
  S  S16  1  0.63506392  0.00794793  0.94902724  1.0
  S  S16  1  0.63167437  0.17206806  0.07114102  1.0
  S  S16  1  0.64538173  0.18123700  0.17720554  1.0
  S  S16  1  0.64576135  0.18764355  0.28855403  1.0
  S  S16  1  0.63268549  0.18198723  0.39200906  1.0
  S  S16  1  0.63344426  0.16114390  0.51602565  1.0
  S  S16  1  0.62592079  0.17967368  0.63075551  1.0
  S  S16  1  0.64716751  0.16755658  0.72063038  1.0
  S  S16  1  0.63427257  0.17898219  0.84967891  1.0
  S  S16  1  0.64079733  0.17684563  0.96709305  1.0
  S  S16  1  0.63735158  0.33627808  0.05993267  1.0
  S  S16  1  0.64048118  0.34008134  0.18275529  1.0
  S  S16  1  0.63489287  0.34616773  0.28651950  1.0
  S  S16  1  0.63661033  0.34046539  0.38935795  1.0
  S  S16  1  0.63765646  0.34546949  0.50353575  1.0
  S  S16  1  0.64802810  0.34146192  0.61782093  1.0
  S  S16  1  0.63419884  0.34863797  0.72751863  1.0
  S  S16  1  0.63896817  0.34567225  0.84614088  1.0
  S  S16  1  0.63469624  0.51399899  0.06583945  1.0
  S  S16  1  0.62881521  0.51712997  0.28367038  1.0
  S  S16  1  0.63323377  0.51352300  0.39317085  1.0
  S  S16  1  0.64125865  0.50025108  0.50666040  1.0
  S  S16  1  0.64359908  0.50712045  0.61514384  1.0
  S  S16  1  0.63787303  0.50941026  0.72337252  1.0
  S  S16  1  0.64573855  0.51785310  0.84377583  1.0
  S  S16  1  0.63648115  0.50710625  0.95909752  1.0
  S  S16  1  0.63973953  0.67508876  0.07287360  1.0
  S  S16  1  0.64312590  0.66779338  0.18128895  1.0
  S  S16  1  0.64322914  0.67532622  0.40194054  1.0
  S  S16  1  0.63875186  0.66314666  0.52352916  1.0
  S  S16  1  0.63079311  0.68386183  0.62054461  1.0
  S  S16  1  0.64370749  0.67377275  0.73711692  1.0
  S  S16  1  0.63972078  0.66956096  0.84385273  1.0
  S  S16  1  0.63677684  0.68219798  0.95931996  1.0
  S  S16  1  0.64071899  0.83554176  0.05620558  1.0
  S  S16  1  0.63792626  0.84437437  0.17035015  1.0
  S  S16  1  0.64033334  0.84404183  0.28841708  1.0
  S  S16  1  0.63484362  0.83048080  0.39678951  1.0
  S  S16  1  0.63945047  0.83526245  0.50566157  1.0
  S  S16  1  0.63915714  0.85346513  0.61906012  1.0
  S  S16  1  0.64771744  0.83983607  0.73508226  1.0
  S  S16  1  0.64227111  0.84658167  0.84496901  1.0
  S  S16  1  0.63764681  0.84604713  0.96191967  1.0
  S  S16  1  0.83433595  0.01762142  0.06860670  1.0
  S  S16  1  0.83373988  0.00169710  0.29823632  1.0
  S  S16  1  0.78502076  0.26154746  0.58538595  1.0
  S  S16  1  0.84106915  0.01859783  0.84855432  1.0
  S  S16  1  0.84387272  0.00774826  0.95091826  1.0
  S  S16  1  0.84999464  0.17349212  0.06498287  1.0
  S  S16  1  0.83892172  0.17479811  0.18513095  1.0
  S  S16  1  0.84050656  0.16586907  0.28356906  1.0
  S  S16  1  0.83753346  0.17987316  0.39039643  1.0
  S  S16  1  0.84171446  0.18044678  0.51923198  1.0
  S  S16  1  0.83875654  0.18102315  0.61659144  1.0
  S  S16  1  0.84220011  0.17325829  0.73224470  1.0
  S  S16  1  0.83800660  0.17869053  0.83651716  1.0
  S  S16  1  0.84189957  0.17893151  0.95259124  1.0
  S  S16  1  0.83388118  0.33791042  0.06193889  1.0
  S  S16  1  0.83846554  0.34154033  0.17461967  1.0
  S  S16  1  0.83142868  0.34773398  0.28464721  1.0
  S  S16  1  0.83373912  0.34806256  0.39336639  1.0
  S  S16  1  0.84028522  0.33117706  0.50196623  1.0
  S  S16  1  0.84024636  0.33907635  0.61450244  1.0
  S  S16  1  0.84240987  0.34289588  0.72034482  1.0
  S  S16  1  0.84226954  0.33382750  0.83381982  1.0
  S  S16  1  0.83338358  0.34004568  0.95465478  1.0
  S  S16  1  0.82849258  0.49718215  0.05601470  1.0
  S  S16  1  0.98400033  0.46296799  0.35885987  1.0
  S  S16  1  0.09118737  0.46500015  0.64191547  1.0
  S  S16  1  0.82168566  0.50605156  0.62003309  1.0
  S  S16  1  0.84058109  0.49700532  0.72505401  1.0
  S  S16  1  0.83055408  0.50238511  0.84164619  1.0
  S  S16  1  0.93377801  0.50177708  0.06426616  1.0
  S  S16  1  0.83564173  0.67611824  0.06293960  1.0
  S  S16  1  0.83053884  0.67155978  0.17682140  1.0
  S  S16  1  0.83628098  0.66599596  0.29213463  1.0
  S  S16  1  0.83998810  0.67462989  0.40079540  1.0
  S  S16  1  0.83221463  0.67909209  0.52139176  1.0
  S  S16  1  0.83426208  0.68107954  0.72732262  1.0
  S  S16  1  0.83482433  0.68235567  0.84246949  1.0
  S  S16  1  0.84242328  0.83939327  0.05508021  1.0
  S  S16  1  0.84914888  0.83898119  0.17730588  1.0
  S  S16  1  0.83382306  0.84504619  0.29141524  1.0
  S  S16  1  0.82970584  0.84134094  0.40345509  1.0
  S  S16  1  0.84290492  0.84455287  0.51444405  1.0
  S  S16  1  0.83937579  0.83092186  0.62104666  1.0
  S  S16  1  0.82968173  0.83692348  0.73013796  1.0
  S  S16  1  0.83234422  0.84445301  0.83740722  1.0
  S  S16  1  0.84664362  0.84631783  0.96071216  1.0
  S  S17  1  0.13563743  0.00998387  0.09356602  1.0
  S  S17  1  0.14037467  0.99717988  0.21876426  1.0
  S  S17  1  0.13385125  0.01173944  0.32453979  1.0
  S  S17  1  0.13487233  0.00386682  0.43251454  1.0
  S  S17  1  0.14148858  0.00607243  0.77127303  1.0
  S  S17  1  0.14144428  0.00579582  0.87848628  1.0
  S  S17  1  0.13817296  0.01391687  0.98834136  1.0
  S  S17  1  0.14315990  0.17518549  0.09731011  1.0
  S  S17  1  0.13707459  0.16395891  0.19795919  1.0
  S  S17  1  0.14105140  0.17937557  0.32284904  1.0
  S  S17  1  0.13943887  0.17527105  0.43542175  1.0
  S  S17  1  0.14737198  0.17977616  0.54535240  1.0
  S  S17  1  0.20016637  0.24822835  0.71175880  1.0
  S  S17  1  0.13498466  0.17870738  0.76151729  1.0
  S  S17  1  0.13842417  0.16020761  0.88474347  1.0
  S  S17  1  0.13112375  0.17723909  0.99581382  1.0
  S  S17  1  0.13389614  0.33977457  0.10025318  1.0
  S  S17  1  0.14547966  0.34846255  0.21203158  1.0
  S  S17  1  0.13307096  0.33888799  0.31434000  1.0
  S  S17  1  0.13687150  0.34477353  0.43107154  1.0
  S  S17  1  0.13448243  0.33996242  0.54429957  1.0
  S  S17  1  0.14345435  0.33354336  0.66098559  1.0
  S  S17  1  0.13723355  0.34361895  0.76005129  1.0
  S  S17  1  0.14188836  0.34360377  0.88821348  1.0
  S  S17  1  0.13248853  0.33631596  0.97823881  1.0
  S  S17  1  0.13336842  0.51569274  0.10292934  1.0
  S  S17  1  0.13426666  0.50903266  0.21140369  1.0
  S  S17  1  0.12679707  0.49831927  0.33412195  1.0
  S  S17  1  0.14504849  0.49709272  0.54620827  1.0
  S  S17  1  0.93390704  0.46495764  0.71487111  1.0
  S  S17  1  0.13195313  0.50791074  0.87870113  1.0
  S  S17  1  0.13742862  0.50405312  0.99036860  1.0
  S  S17  1  0.13354796  0.66667708  0.09375482  1.0
  S  S17  1  0.13224264  0.67620243  0.21488148  1.0
  S  S17  1  0.14477126  0.67224337  0.32736482  1.0
  S  S17  1  0.13826409  0.67652044  0.43770476  1.0
  S  S17  1  0.14076926  0.67623654  0.54222573  1.0
  S  S17  1  0.13885685  0.68193352  0.65783276  1.0
  S  S17  1  0.13550637  0.67863060  0.76044452  1.0
  S  S17  1  0.13940175  0.67084178  0.87699554  1.0
  S  S17  1  0.14370270  0.67753234  0.98003689  1.0
  S  S17  1  0.14069956  0.83385520  0.10515401  1.0
  S  S17  1  0.13457220  0.84076172  0.21310896  1.0
  S  S17  1  0.14225531  0.82222943  0.32089588  1.0
  S  S17  1  0.13547839  0.84551041  0.43563035  1.0
  S  S17  1  0.14078740  0.83638400  0.53893828  1.0
  S  S17  1  0.14339859  0.84833276  0.65659665  1.0
  S  S17  1  0.13858217  0.84285903  0.76095033  1.0
  S  S17  1  0.14554365  0.83932955  0.87720774  1.0
  S  S17  1  0.13479219  0.81952014  0.99341454  1.0
  S  S17  1  0.33257585  0.00841416  0.09661715  1.0
  S  S17  1  0.33473449  0.00724951  0.20633761  1.0
  S  S17  1  0.33721489  0.00517133  0.31593579  1.0
  S  S17  1  0.34368805  0.00241642  0.43775599  1.0
  S  S17  1  0.34081599  0.01258772  0.54279557  1.0
  S  S17  1  0.19900785  0.99897888  0.89176047  1.0
  S  S17  1  0.33627002  0.00975598  0.76659566  1.0
  S  S17  1  0.34305729  0.00689522  0.87838052  1.0
  S  S17  1  0.33917490  0.18358345  0.09802595  1.0
  S  S17  1  0.34377324  0.16954004  0.21212699  1.0
  S  S17  1  0.33395304  0.17375269  0.31928270  1.0
  S  S17  1  0.34363944  0.17203688  0.54843048  1.0
  S  S17  1  0.33484995  0.17359964  0.66481690  1.0
  S  S17  1  0.33494955  0.17465758  0.76825422  1.0
  S  S17  1  0.33739223  0.17741020  0.87933413  1.0
  S  S17  1  0.33894294  0.16659669  0.99133013  1.0
  S  S17  1  0.33911895  0.34438591  0.09953378  1.0
  S  S17  1  0.33744638  0.34459736  0.20666722  1.0
  S  S17  1  0.32841416  0.33363453  0.31977196  1.0
  S  S17  1  0.34283369  0.35264564  0.42970208  1.0
  S  S17  1  0.33761879  0.33933862  0.65961271  1.0
  S  S17  1  0.34308559  0.33588380  0.76284965  1.0
  S  S17  1  0.33706490  0.34820605  0.87530769  1.0
  S  S17  1  0.33000136  0.35034501  0.99293437  1.0
  S  S17  1  0.33153570  0.50934412  0.10574410  1.0
  S  S17  1  0.33794800  0.51525636  0.21545805  1.0
  S  S17  1  0.33971491  0.50838110  0.32308882  1.0
  S  S17  1  0.34186351  0.50605663  0.43982739  1.0
  S  S17  1  0.34020071  0.50992513  0.54387681  1.0
  S  S17  1  0.33576159  0.51239249  0.66286667  1.0
  S  S17  1  0.34012205  0.50413471  0.75922862  1.0
  S  S17  1  0.34117304  0.52328940  0.98870857  1.0
  S  S17  1  0.33567454  0.67911218  0.09624154  1.0
  S  S17  1  0.34494935  0.67614176  0.21228839  1.0
  S  S17  1  0.33361545  0.67899970  0.32112503  1.0
  S  S17  1  0.34431225  0.67770925  0.44474727  1.0
  S  S17  1  0.33884125  0.69226138  0.54854692  1.0
  S  S17  1  0.33821021  0.67126645  0.66165275  1.0
  S  S17  1  0.33747203  0.67050598  0.76381527  1.0
  S  S17  1  0.33652073  0.68732065  0.88069302  1.0
  S  S17  1  0.33418012  0.68025737  0.99123787  1.0
  S  S17  1  0.34394374  0.85193082  0.09319703  1.0
  S  S17  1  0.32562300  0.85241577  0.20868969  1.0
  S  S17  1  0.32900066  0.83710682  0.31827415  1.0
  S  S17  1  0.33396278  0.84956110  0.43154540  1.0
  S  S17  1  0.32812300  0.84210974  0.53717119  1.0
  S  S17  1  0.33909990  0.84345723  0.66411249  1.0
  S  S17  1  0.33495699  0.84454520  0.75930075  1.0
  S  S17  1  0.34196683  0.84820248  0.87784598  1.0
  S  S17  1  0.33352713  0.83386449  0.99003940  1.0
  S  S17  1  0.54355090  0.00437630  0.21848704  1.0
  S  S17  1  0.53133167  0.00600791  0.54470558  1.0
  S  S17  1  0.53963932  0.00576990  0.66463009  1.0
  S  S17  1  0.54378190  0.00590309  0.76515389  1.0
  S  S17  1  0.53447141  0.01405308  0.87565593  1.0
  S  S17  1  0.29270442  0.95731705  0.17029949  1.0
  S  S17  1  0.52834207  0.17710886  0.10299499  1.0
  S  S17  1  0.52894693  0.17581459  0.20986038  1.0
  S  S17  1  0.52795831  0.17482105  0.32570026  1.0
  S  S17  1  0.54017957  0.18002721  0.43591003  1.0
  S  S17  1  0.54112508  0.16787886  0.53815855  1.0
  S  S17  1  0.53174618  0.16980190  0.66942856  1.0
  S  S17  1  0.53330268  0.17397369  0.76343514  1.0
  S  S17  1  0.53569904  0.18467677  0.86970113  1.0
  S  S17  1  0.54838986  0.17451363  0.99544805  1.0
  S  S17  1  0.53803073  0.34637099  0.09561804  1.0
  S  S17  1  0.53071568  0.35607612  0.22285546  1.0
  S  S17  1  0.53221931  0.34465935  0.32985107  1.0
  S  S17  1  0.54289431  0.34309066  0.44993668  1.0
  S  S17  1  0.54091296  0.33465479  0.54365941  1.0
  S  S17  1  0.53188841  0.34096396  0.65518334  1.0
  S  S17  1  0.54125094  0.34480598  0.77010406  1.0
  S  S17  1  0.53980948  0.34808961  0.87731642  1.0
  S  S17  1  0.52553331  0.35314278  0.98525057  1.0
  S  S17  1  0.39095192  0.50489438  0.31317023  1.0
  S  S17  1  0.53287019  0.50299752  0.20973855  1.0
  S  S17  1  0.54125801  0.51011343  0.32625238  1.0
  S  S17  1  0.53811280  0.51263698  0.77315673  1.0
  S  S17  1  0.69504062  0.71042494  0.08517988  1.0
  S  S17  1  0.54841623  0.51495329  0.99338167  1.0
  S  S17  1  0.52536367  0.66138978  0.10436337  1.0
  S  S17  1  0.54164323  0.67380770  0.21378348  1.0
  S  S17  1  0.53292138  0.67711438  0.32680278  1.0
  S  S17  1  0.54043411  0.67567468  0.54416467  1.0
  S  S17  1  0.53642318  0.68068510  0.65913770  1.0
  S  S17  1  0.54167782  0.67759404  0.76869335  1.0
  S  S17  1  0.54250513  0.66991035  0.88228810  1.0
  S  S17  1  0.53635134  0.67554277  0.99476040  1.0
  S  S17  1  0.53023279  0.83370622  0.09773070  1.0
  S  S17  1  0.53383396  0.83931230  0.22165124  1.0
  S  S17  1  0.54772921  0.83997588  0.32892600  1.0
  S  S17  1  0.53726422  0.84239131  0.42931310  1.0
  S  S17  1  0.74340686  0.67112215  0.74039001  1.0
  S  S17  1  0.54008892  0.84999610  0.65557710  1.0
  S  S17  1  0.53633361  0.85106024  0.76808142  1.0
  S  S17  1  0.53346516  0.84762568  0.87711668  1.0
  S  S17  1  0.53319631  0.84298273  0.99605130  1.0
  S  S17  1  0.73820254  0.00056381  0.10063231  1.0
  S  S17  1  0.73198839  0.99920325  0.21246665  1.0
  S  S17  1  0.74300175  0.01176083  0.54518419  1.0
  S  S17  1  0.74388288  0.01752187  0.65955332  1.0
  S  S17  1  0.73565189  0.01647336  0.88737110  1.0
  S  S17  1  0.60313902  0.26122762  0.82526507  1.0
  S  S17  1  0.72573238  0.16445119  0.09615972  1.0
  S  S17  1  0.73747481  0.18103773  0.20345716  1.0
  S  S17  1  0.73016085  0.17827107  0.31572337  1.0
  S  S17  1  0.73631010  0.17438099  0.43068357  1.0
  S  S17  1  0.74124282  0.16013056  0.55692207  1.0
  S  S17  1  0.73583189  0.17259743  0.67154892  1.0
  S  S17  1  0.72829332  0.16851470  0.78077520  1.0
  S  S17  1  0.72970979  0.17664593  0.87579776  1.0
  S  S17  1  0.72941187  0.17683860  0.99324088  1.0
  S  S17  1  0.73748692  0.35288800  0.09712010  1.0
  S  S17  1  0.74180613  0.34229149  0.21772493  1.0
  S  S17  1  0.73519833  0.33236221  0.31903296  1.0
  S  S17  1  0.73715047  0.34476379  0.43471383  1.0
  S  S17  1  0.73855371  0.35079804  0.54563474  1.0
  S  S17  1  0.73341387  0.34821231  0.64457211  1.0
  S  S17  1  0.72658552  0.34064920  0.75955089  1.0
  S  S17  1  0.73444354  0.34598701  0.88196630  1.0
  S  S17  1  0.73709572  0.50747142  0.32123223  1.0
  S  S17  1  0.74208933  0.51219146  0.44029766  1.0
  S  S17  1  0.74266089  0.50777988  0.54157187  1.0
  S  S17  1  0.73649544  0.50803681  0.76336542  1.0
  S  S17  1  0.65813667  0.75994623  0.96177936  1.0
  S  S17  1  0.74312474  0.67734972  0.09800324  1.0
  S  S17  1  0.74008053  0.66882063  0.20718450  1.0
  S  S17  1  0.73986081  0.67660716  0.33821836  1.0
  S  S17  1  0.73724657  0.67306291  0.55088917  1.0
  S  S17  1  0.84710301  0.74053804  0.68375099  1.0
  S  S17  1  0.73893224  0.68296193  0.77026724  1.0
  S  S17  1  0.73331952  0.68479546  0.87415776  1.0
  S  S17  1  0.73351551  0.68173424  0.99891874  1.0
  S  S17  1  0.74455394  0.83372251  0.10101579  1.0
  S  S17  1  0.73089993  0.85666519  0.21385066  1.0
  S  S17  1  0.74396135  0.84397856  0.33655932  1.0
  S  S17  1  0.73509775  0.83685994  0.43578989  1.0
  S  S17  1  0.74187348  0.85325063  0.55455928  1.0
  S  S17  1  0.74458140  0.83943955  0.65107163  1.0
  S  S17  1  0.73349192  0.84313772  0.75424320  1.0
  S  S17  1  0.74519962  0.83420833  0.87202816  1.0
  S  S17  1  0.73515047  0.83225238  0.99125685  1.0
  S  S17  1  0.93265740  0.01001752  0.10635978  1.0
  S  S17  1  0.93473749  0.00260180  0.31917527  1.0
  S  S17  1  0.93203359  0.00534323  0.43422369  1.0
  S  S17  1  0.93130362  0.00443299  0.54155236  1.0
  S  S17  1  0.94062172  0.99079794  0.88363732  1.0
  S  S17  1  0.94366261  0.00348281  0.98076157  1.0
  S  S17  1  0.93366401  0.16880349  0.10785749  1.0
  S  S17  1  0.93049920  0.17430344  0.22597884  1.0
  S  S17  1  0.94041920  0.17648030  0.32308530  1.0
  S  S17  1  0.94236083  0.17609151  0.44475127  1.0
  S  S17  1  0.94727805  0.17554193  0.54556391  1.0
  S  S17  1  0.93966030  0.17156803  0.65573082  1.0
  S  S17  1  0.92854015  0.17521769  0.77319359  1.0
  S  S17  1  0.94018628  0.17344381  0.88122702  1.0
  S  S17  1  0.94499907  0.17128732  0.98239398  1.0
  S  S17  1  0.94061115  0.34356249  0.10546007  1.0
  S  S17  1  0.93825511  0.33568189  0.21634032  1.0
  S  S17  1  0.93889239  0.33865018  0.33200271  1.0
  S  S17  1  0.93743063  0.34778934  0.43943896  1.0
  S  S17  1  0.93258643  0.33679423  0.53743219  1.0
  S  S17  1  0.93963295  0.34089687  0.66423135  1.0
  S  S17  1  0.94230450  0.32899440  0.77049212  1.0
  S  S17  1  0.92632223  0.34258468  0.89491533  1.0
  S  S17  1  0.93900621  0.34204430  0.98984632  1.0
  S  S17  1  0.94319802  0.50304499  0.10212778  1.0
  S  S17  1  0.93361121  0.50391380  0.31547595  1.0
  S  S17  1  0.93731762  0.50023902  0.55367821  1.0
  S  S17  1  0.93532865  0.49498750  0.76180455  1.0
  S  S17  1  0.18815417  0.26093549  0.64081663  1.0
  S  S17  1  0.93355968  0.50364867  0.98634519  1.0
  S  S17  1  0.94074073  0.67743803  0.09723496  1.0
  S  S17  1  0.93727755  0.67379552  0.20823166  1.0
  S  S17  1  0.94417368  0.67476856  0.32171105  1.0
  S  S17  1  0.93541056  0.68398738  0.43914760  1.0
  S  S17  1  0.94236594  0.67818033  0.54549465  1.0
  S  S17  1  0.94380694  0.66458885  0.66556108  1.0
  S  S17  1  0.94118492  0.67658947  0.76386580  1.0
  S  S17  1  0.94212755  0.68059961  0.87526329  1.0
  S  S17  1  0.93630545  0.66655933  0.98901068  1.0
  S  S17  1  0.93698998  0.85321284  0.09296647  1.0
  S  S17  1  0.92962114  0.84288665  0.21377690  1.0
  S  S17  1  0.94253070  0.84433429  0.32654455  1.0
  S  S17  1  0.93807125  0.84668417  0.43162579  1.0
  S  S17  1  0.93617727  0.84620239  0.55464092  1.0
  S  S17  1  0.93482113  0.84360300  0.65351765  1.0
  S  S17  1  0.94115539  0.82939779  0.76437362  1.0
  S  S17  1  0.93461342  0.83821717  0.86527144  1.0
  S  S17  1  0.94758649  0.82512573  0.99280487  1.0
  S  S18  1  0.05453725  0.08276295  0.01141926  1.0
  S  S18  1  0.06597086  0.08375698  0.22597586  1.0
  S  S18  1  0.05511604  0.09249680  0.33685149  1.0
  S  S18  1  0.06746610  0.08530274  0.46100101  1.0
  S  S18  1  0.07041105  0.09132365  0.55495787  1.0
  S  S18  1  0.06456382  0.09141769  0.67727032  1.0
  S  S18  1  0.07025363  0.09116622  0.90228566  1.0
  S  S18  1  0.05921490  0.25525945  0.01590658  1.0
  S  S18  1  0.06320058  0.25870336  0.12635277  1.0
  S  S18  1  0.07065830  0.24993481  0.22933373  1.0
  S  S18  1  0.06979903  0.26908868  0.34169543  1.0
  S  S18  1  0.06371771  0.25949008  0.45560993  1.0
  S  S18  1  0.06344219  0.26611818  0.55531382  1.0
  S  S18  1  0.05924884  0.26085265  0.67375273  1.0
  S  S18  1  0.06395012  0.26357719  0.79628211  1.0
  S  S18  1  0.06390507  0.26602856  0.89945047  1.0
  S  S18  1  0.05866677  0.41553356  0.00403541  1.0
  S  S18  1  0.06254354  0.42378938  0.12214970  1.0
  S  S18  1  0.07168818  0.42820307  0.23639281  1.0
  S  S18  1  0.07184674  0.42278482  0.34155120  1.0
  S  S18  1  0.06825531  0.42774606  0.45431912  1.0
  S  S18  1  0.06088603  0.42511264  0.67663628  1.0
  S  S18  1  0.05920438  0.42202941  0.78843494  1.0
  S  S18  1  0.06624690  0.42019788  0.90359409  1.0
  S  S18  1  0.05617303  0.59336478  0.01280502  1.0
  S  S18  1  0.06210200  0.59064915  0.11962835  1.0
  S  S18  1  0.05903010  0.59213326  0.23110480  1.0
  S  S18  1  0.06876543  0.57356782  0.34617958  1.0
  S  S18  1  0.05303098  0.58382771  0.45109162  1.0
  S  S18  1  0.06920752  0.59731881  0.56574038  1.0
  S  S18  1  0.06197665  0.59776918  0.68308051  1.0
  S  S18  1  0.05965049  0.59439297  0.78235717  1.0
  S  S18  1  0.05862472  0.59440191  0.89631275  1.0
  S  S18  1  0.06074781  0.74687519  0.01224438  1.0
  S  S18  1  0.05811406  0.75197104  0.12828158  1.0
  S  S18  1  0.05908866  0.76154467  0.23799829  1.0
  S  S18  1  0.06723818  0.75734230  0.34156835  1.0
  S  S18  1  0.05796052  0.74624995  0.45843944  1.0
  S  S18  1  0.06590070  0.75986850  0.66099708  1.0
  S  S18  1  0.06163531  0.76079666  0.79457415  1.0
  S  S18  1  0.06401225  0.75814628  0.89498032  1.0
  S  S18  1  0.06384863  0.92345372  0.00626482  1.0
  S  S18  1  0.05674188  0.91787975  0.12266975  1.0
  S  S18  1  0.05409613  0.92311971  0.23947387  1.0
  S  S18  1  0.05536056  0.92636654  0.45721366  1.0
  S  S18  1  0.06106581  0.92741830  0.56432026  1.0
  S  S18  1  0.06665432  0.91763174  0.68713960  1.0
  S  S18  1  0.07028898  0.91056775  0.79846068  1.0
  S  S18  1  0.05963939  0.93234849  0.90417280  1.0
  S  S18  1  0.25709262  0.09379872  0.00597160  1.0
  S  S18  1  0.26520601  0.09058007  0.11692668  1.0
  S  S18  1  0.45584549  0.87639972  0.40120545  1.0
  S  S18  1  0.25710897  0.08754148  0.33996706  1.0
  S  S18  1  0.25704738  0.09477833  0.44247208  1.0
  S  S18  1  0.26696799  0.09422282  0.56931411  1.0
  S  S18  1  0.26561396  0.09101358  0.67433118  1.0
  S  S18  1  0.26798536  0.08251725  0.79784353  1.0
  S  S18  1  0.25691211  0.08831906  0.90647373  1.0
  S  S18  1  0.27349441  0.25914540  0.00267929  1.0
  S  S18  1  0.26707376  0.25855889  0.11559573  1.0
  S  S18  1  0.26361415  0.24899843  0.23307348  1.0
  S  S18  1  0.25752233  0.24497269  0.33355933  1.0
  S  S18  1  0.25948674  0.26001995  0.46106389  1.0
  S  S18  1  0.26990576  0.24955743  0.56659539  1.0
  S  S18  1  0.25947357  0.25631983  0.68413794  1.0
  S  S18  1  0.26332451  0.26224602  0.79961191  1.0
  S  S18  1  0.25470788  0.25407720  0.90178908  1.0
  S  S18  1  0.26377115  0.43060408  0.00774973  1.0
  S  S18  1  0.26354837  0.41903261  0.12669456  1.0
  S  S18  1  0.26273014  0.43217364  0.23969681  1.0
  S  S18  1  0.25612188  0.43315428  0.34819358  1.0
  S  S18  1  0.26173843  0.42875122  0.45146702  1.0
  S  S18  1  0.26931464  0.42423676  0.57018088  1.0
  S  S18  1  0.25780636  0.42750671  0.68258268  1.0
  S  S18  1  0.26405636  0.42704879  0.78342855  1.0
  S  S18  1  0.26195927  0.42503198  0.89970366  1.0
  S  S18  1  0.26005917  0.58905509  0.00024828  1.0
  S  S18  1  0.26251113  0.59283459  0.11331567  1.0
  S  S18  1  0.26293750  0.59774399  0.23604674  1.0
  S  S18  1  0.26644231  0.58709393  0.34196326  1.0
  S  S18  1  0.26289030  0.59118818  0.44143535  1.0
  S  S18  1  0.25792274  0.59639810  0.56108330  1.0
  S  S18  1  0.26114600  0.59160840  0.66699199  1.0
  S  S18  1  0.27040853  0.59010952  0.78290177  1.0
  S  S18  1  0.50323724  0.79682811  0.83365347  1.0
  S  S18  1  0.26955332  0.75367413  0.01601331  1.0
  S  S18  1  0.26034386  0.75855506  0.12613969  1.0
  S  S18  1  0.25969383  0.75142249  0.23524882  1.0
  S  S18  1  0.26862448  0.76303968  0.34784240  1.0
  S  S18  1  0.26023562  0.76115454  0.45618403  1.0
  S  S18  1  0.26749880  0.75802714  0.68314091  1.0
  S  S18  1  0.26010761  0.76119716  0.78070577  1.0
  S  S18  1  0.26084929  0.75272414  0.91777325  1.0
  S  S18  1  0.26584286  0.91748732  0.00109650  1.0
  S  S18  1  0.25380508  0.91669943  0.11627703  1.0
  S  S18  1  0.25765082  0.92079134  0.23655640  1.0
  S  S18  1  0.26152589  0.92797051  0.33732100  1.0
  S  S18  1  0.26061024  0.91792675  0.45664471  1.0
  S  S18  1  0.26161564  0.93442045  0.56169282  1.0
  S  S18  1  0.25642348  0.92615042  0.67612166  1.0
  S  S18  1  0.26412215  0.92392949  0.78784618  1.0
  S  S18  1  0.25918535  0.92199319  0.89034611  1.0
  S  S18  1  0.46849903  0.09802451  0.01489521  1.0
  S  S18  1  0.45971736  0.08822079  0.12455270  1.0
  S  S18  1  0.45776923  0.09721524  0.21904195  1.0
  S  S18  1  0.45702935  0.08482046  0.35154935  1.0
  S  S18  1  0.46715297  0.09447544  0.46568309  1.0
  S  S18  1  0.46256998  0.09414047  0.55664284  1.0
  S  S18  1  0.46092183  0.09096949  0.67146249  1.0
  S  S18  1  0.46208834  0.07750246  0.78934980  1.0
  S  S18  1  0.46005899  0.08586685  0.90310277  1.0
  S  S18  1  0.46976562  0.26525035  0.00258427  1.0
  S  S18  1  0.46577166  0.25576284  0.12759302  1.0
  S  S18  1  0.46118903  0.24517825  0.22554167  1.0
  S  S18  1  0.45584338  0.25478352  0.34323293  1.0
  S  S18  1  0.46388893  0.26249108  0.45137150  1.0
  S  S18  1  0.46432944  0.25028523  0.56233462  1.0
  S  S18  1  0.47358718  0.25143147  0.68702292  1.0
  S  S18  1  0.46239030  0.25653557  0.79266077  1.0
  S  S18  1  0.46641785  0.26525545  0.89747348  1.0
  S  S18  1  0.45941347  0.42477695  0.00465348  1.0
  S  S18  1  0.46337182  0.42263019  0.11070711  1.0
  S  S18  1  0.46797963  0.42687157  0.22759415  1.0
  S  S18  1  0.46288490  0.42110576  0.34397742  1.0
  S  S18  1  0.47078399  0.42775049  0.45208693  1.0
  S  S18  1  0.45737328  0.41928742  0.56976739  1.0
  S  S18  1  0.46043376  0.42839907  0.67447498  1.0
  S  S18  1  0.39206032  0.56962754  0.80089973  1.0
  S  S18  1  0.45768181  0.41833860  0.89579962  1.0
  S  S18  1  0.46699165  0.59667503  0.01573384  1.0
  S  S18  1  0.46798611  0.58814613  0.12452420  1.0
  S  S18  1  0.46803224  0.58693781  0.23393394  1.0
  S  S18  1  0.46129650  0.57891951  0.34474903  1.0
  S  S18  1  0.45895270  0.59669548  0.45008102  1.0
  S  S18  1  0.46101519  0.58844725  0.55990182  1.0
  S  S18  1  0.46072668  0.59399306  0.79490414  1.0
  S  S18  1  0.46261254  0.59581250  0.90160466  1.0
  S  S18  1  0.46536962  0.76071144  0.00829337  1.0
  S  S18  1  0.45758197  0.76651680  0.12508486  1.0
  S  S18  1  0.46141564  0.76197855  0.23566358  1.0
  S  S18  1  0.45772356  0.75526381  0.35074068  1.0
  S  S18  1  0.46249355  0.75924951  0.57220522  1.0
  S  S18  1  0.45968573  0.75335304  0.67662836  1.0
  S  S18  1  0.45874740  0.74933680  0.79295615  1.0
  S  S18  1  0.46058297  0.73913020  0.90070006  1.0
  S  S18  1  0.46384708  0.93550159  0.00976620  1.0
  S  S18  1  0.46784975  0.92756690  0.11768959  1.0
  S  S18  1  0.46399107  0.92298615  0.34143833  1.0
  S  S18  1  0.45687699  0.92080310  0.45460439  1.0
  S  S18  1  0.46065127  0.92098262  0.56559829  1.0
  S  S18  1  0.45315477  0.91749808  0.67486270  1.0
  S  S18  1  0.47300005  0.93069178  0.78274918  1.0
  S  S18  1  0.47058157  0.92362356  0.89249777  1.0
  S  S18  1  0.66212604  0.09629311  0.00361385  1.0
  S  S18  1  0.65734738  0.10128934  0.12251455  1.0
  S  S18  1  0.66016537  0.08965382  0.23356627  1.0
  S  S18  1  0.66155424  0.09851214  0.34366107  1.0
  S  S18  1  0.66590769  0.09179373  0.45453419  1.0
  S  S18  1  0.66671240  0.09683963  0.55620670  1.0
  S  S18  1  0.66242376  0.10277009  0.67402544  1.0
  S  S18  1  0.66319237  0.10411338  0.78416975  1.0
  S  S18  1  0.66065652  0.08073691  0.89924674  1.0
  S  S18  1  0.66444117  0.26088133  0.01836079  1.0
  S  S18  1  0.66087275  0.25011382  0.11605374  1.0
  S  S18  1  0.65753800  0.25577142  0.23910763  1.0
  S  S18  1  0.66216035  0.26532619  0.34250101  1.0
  S  S18  1  0.65662768  0.25293715  0.44979882  1.0
  S  S18  1  0.66190971  0.25943396  0.56175755  1.0
  S  S18  1  0.66646692  0.26333775  0.67502115  1.0
  S  S18  1  0.66633261  0.24436619  0.77462196  1.0
  S  S18  1  0.66667747  0.25439980  0.91068046  1.0
  S  S18  1  0.66205645  0.41754779  0.01897581  1.0
  S  S18  1  0.66545598  0.43600481  0.11740735  1.0
  S  S18  1  0.66248506  0.42076748  0.22068064  1.0
  S  S18  1  0.66548136  0.42356774  0.33852955  1.0
  S  S18  1  0.65559012  0.42474504  0.45458269  1.0
  S  S18  1  0.66010643  0.41953165  0.56951707  1.0
  S  S18  1  0.65012807  0.42747206  0.67898944  1.0
  S  S18  1  0.65587644  0.41215049  0.79118827  1.0
  S  S18  1  0.65666004  0.43320558  0.91021428  1.0
  S  S18  1  0.66268831  0.59187786  0.00903228  1.0
  S  S18  1  0.65400357  0.58856170  0.11840171  1.0
  S  S18  1  0.65851636  0.59360067  0.23316859  1.0
  S  S18  1  0.66644483  0.58760142  0.34640453  1.0
  S  S18  1  0.66255970  0.59392840  0.45381004  1.0
  S  S18  1  0.66974602  0.57067207  0.57197274  1.0
  S  S18  1  0.66668402  0.58290905  0.68709888  1.0
  S  S18  1  0.66263155  0.58954140  0.78958902  1.0
  S  S18  1  0.66695062  0.59110438  0.89922615  1.0
  S  S18  1  0.66661035  0.76430863  0.01248179  1.0
  S  S18  1  0.65479399  0.75077000  0.12680787  1.0
  S  S18  1  0.66113186  0.75332478  0.23440747  1.0
  S  S18  1  0.66409734  0.75563957  0.34717213  1.0
  S  S18  1  0.65416985  0.74481546  0.46464574  1.0
  S  S18  1  0.65691470  0.74798968  0.56356792  1.0
  S  S18  1  0.66137934  0.75481854  0.67714749  1.0
  S  S18  1  0.65542418  0.76130913  0.77923524  1.0
  S  S18  1  0.66303242  0.76314362  0.90374928  1.0
  S  S18  1  0.66347483  0.91925216  0.00878305  1.0
  S  S18  1  0.65831047  0.91445953  0.12376116  1.0
  S  S18  1  0.65475200  0.92599807  0.23533481  1.0
  S  S18  1  0.65684951  0.91631636  0.34129720  1.0
  S  S18  1  0.65596270  0.92964888  0.46155887  1.0
  S  S18  1  0.66642905  0.92575702  0.56567821  1.0
  S  S18  1  0.65728882  0.92866808  0.68392212  1.0
  S  S18  1  0.66075994  0.92431044  0.78332018  1.0
  S  S18  1  0.65911027  0.91734110  0.89889371  1.0
  S  S18  1  0.86386502  0.09493695  0.01169978  1.0
  S  S18  1  0.85033255  0.09059208  0.12423967  1.0
  S  S18  1  0.86247623  0.09720765  0.23146813  1.0
  S  S18  1  0.86450271  0.08419968  0.34631521  1.0
  S  S18  1  0.86633525  0.08799903  0.44478489  1.0
  S  S18  1  0.85833852  0.08337978  0.57060035  1.0
  S  S18  1  0.86007938  0.09467068  0.66793798  1.0
  S  S18  1  0.85838503  0.08565301  0.78906796  1.0
  S  S18  1  0.85215432  0.08862883  0.89669277  1.0
  S  S18  1  0.86673494  0.25890531  0.00729949  1.0
  S  S18  1  0.84959614  0.25277865  0.11359896  1.0
  S  S18  1  0.85648715  0.25249616  0.23646459  1.0
  S  S18  1  0.85394792  0.24768024  0.33968592  1.0
  S  S18  1  0.86113013  0.25486629  0.45064081  1.0
  S  S18  1  0.85809602  0.26319431  0.55803568  1.0
  S  S18  1  0.86831432  0.25578430  0.68376581  1.0
  S  S18  1  0.86224496  0.24992420  0.77580335  1.0
  S  S18  1  0.86503029  0.25253067  0.90178743  1.0
  S  S18  1  0.85951104  0.43180032  0.00938216  1.0
  S  S18  1  0.85452064  0.42295331  0.12708831  1.0
  S  S18  1  0.85756516  0.41384470  0.23686704  1.0
  S  S18  1  0.85743292  0.41274113  0.33788503  1.0
  S  S18  1  0.86209792  0.42828664  0.45599890  1.0
  S  S18  1  0.85713587  0.42878545  0.56906792  1.0
  S  S18  1  0.86216715  0.41907239  0.67234319  1.0
  S  S18  1  0.86415219  0.42763547  0.78252680  1.0
  S  S18  1  0.87109429  0.42260169  0.90367344  1.0
  S  S18  1  0.85616398  0.59136708  0.00272855  1.0
  S  S18  1  0.86312464  0.59293082  0.12355749  1.0
  S  S18  1  0.85840435  0.58113574  0.23659904  1.0
  S  S18  1  0.86023405  0.58975164  0.33915124  1.0
  S  S18  1  0.86210204  0.59008924  0.45981630  1.0
  S  S18  1  0.85202252  0.58232640  0.56701794  1.0
  S  S18  1  0.85137937  0.58571986  0.68922584  1.0
  S  S18  1  0.85984228  0.59487605  0.88767547  1.0
  S  S18  1  0.86536985  0.75550093  0.01218110  1.0
  S  S18  1  0.86349216  0.75589932  0.12367449  1.0
  S  S18  1  0.85677547  0.75711179  0.23468015  1.0
  S  S18  1  0.85918307  0.75246181  0.34146939  1.0
  S  S18  1  0.86781268  0.76248372  0.45821382  1.0
  S  S18  1  0.86993562  0.75851779  0.56717938  1.0
  S  S18  1  0.85534258  0.75695221  0.67695521  1.0
  S  S18  1  0.86685435  0.74910175  0.78705964  1.0
  S  S18  1  0.87344239  0.75657629  0.90670900  1.0
  S  S18  1  0.86425374  0.92704861  0.00483522  1.0
  S  S18  1  0.85448776  0.92802834  0.12257271  1.0
  S  S18  1  0.86274798  0.91044742  0.23511840  1.0
  S  S18  1  0.85805656  0.92110421  0.34580251  1.0
  S  S18  1  0.86753936  0.92717605  0.45607521  1.0
  S  S18  1  0.86116474  0.92684711  0.55876853  1.0
  S  S18  1  0.86275387  0.92817964  0.67582757  1.0
  S  S18  1  0.85586261  0.91796943  0.78182480  1.0
  S  S18  1  0.85681023  0.94122299  0.89389704  1.0
  S  S19  1  0.03734987  0.07267764  0.07491397  1.0
  S  S19  1  0.03963072  0.07834586  0.17774150  1.0
  S  S19  1  0.03885333  0.07832721  0.28414936  1.0
  S  S19  1  0.03437707  0.07647269  0.40167888  1.0
  S  S19  1  0.03851272  0.06961765  0.50192424  1.0
  S  S19  1  0.03109354  0.07499690  0.61065280  1.0
  S  S19  1  0.04721313  0.08824373  0.73683414  1.0
  S  S19  1  0.03620480  0.07253543  0.84672537  1.0
  S  S19  1  0.00266844  0.20299021  0.93724811  1.0
  S  S19  1  0.03653193  0.24627763  0.05248182  1.0
  S  S19  1  0.03148001  0.24546355  0.28560249  1.0
  S  S19  1  0.03595463  0.24742131  0.51143532  1.0
  S  S19  1  0.79763641  0.03282269  0.44294308  1.0
  S  S19  1  0.03342010  0.23891077  0.72328345  1.0
  S  S19  1  0.14833598  0.11489353  0.70549345  1.0
  S  S19  1  0.04613468  0.24361988  0.95555770  1.0
  S  S19  1  0.03906290  0.40369482  0.06928114  1.0
  S  S19  1  0.95202885  0.36775964  0.20616680  1.0
  S  S19  1  0.03911568  0.41170439  0.29298215  1.0
  S  S19  1  0.03810106  0.41187612  0.38992850  1.0
  S  S19  1  0.04325673  0.40703628  0.50394124  1.0
  S  S19  1  0.04261751  0.39866688  0.62975212  1.0
  S  S19  1  0.05010780  0.40651514  0.72779984  1.0
  S  S19  1  0.84711581  0.29063244  0.81358856  1.0
  S  S19  1  0.02282538  0.41203271  0.95910182  1.0
  S  S19  1  0.04212732  0.57783730  0.07534309  1.0
  S  S19  1  0.03779945  0.58683056  0.17836118  1.0
  S  S19  1  0.04310449  0.57550027  0.29866873  1.0
  S  S19  1  0.04110788  0.57493905  0.39175490  1.0
  S  S19  1  0.03850946  0.57138232  0.51219089  1.0
  S  S19  1  0.04076971  0.58269605  0.62382873  1.0
  S  S19  1  0.03716401  0.58214819  0.74251999  1.0
  S  S19  1  0.03117803  0.58849687  0.85247805  1.0
  S  S19  1  0.03322107  0.56493432  0.96079375  1.0
  S  S19  1  0.03850962  0.74026310  0.06705431  1.0
  S  S19  1  0.04340216  0.73067355  0.17714284  1.0
  S  S19  1  0.03776657  0.75213753  0.29207945  1.0
  S  S19  1  0.04156977  0.74033298  0.51343589  1.0
  S  S19  1  0.03505805  0.74237177  0.62402580  1.0
  S  S19  1  0.03806541  0.74407911  0.74029131  1.0
  S  S19  1  0.03407620  0.73330461  0.83631871  1.0
  S  S19  1  0.03171436  0.91863447  0.07241005  1.0
  S  S19  1  0.85534434  0.87345575  0.98093047  1.0
  S  S19  1  0.09561676  0.07216333  0.37207192  1.0
  S  S19  1  0.10061760  0.04558209  0.27206361  1.0
  S  S19  1  0.03532616  0.89994827  0.51546571  1.0
  S  S19  1  0.93874413  0.67196874  0.84048610  1.0
  S  S19  1  0.04509392  0.90611926  0.73317562  1.0
  S  S19  1  0.88603534  0.82122493  0.19648287  1.0
  S  S19  1  0.23853531  0.06679872  0.27388881  1.0
  S  S19  1  0.23593962  0.08321002  0.39992368  1.0
  S  S19  1  0.23097655  0.06557488  0.51607873  1.0
  S  S19  1  0.22871778  0.08088787  0.62512620  1.0
  S  S19  1  0.24564059  0.07253903  0.73712724  1.0
  S  S19  1  0.40698847  0.27656514  0.66739142  1.0
  S  S19  1  0.23727838  0.06989481  0.95567295  1.0
  S  S19  1  0.23165506  0.32683088  0.30167890  1.0
  S  S19  1  0.23685587  0.24156343  0.18517923  1.0
  S  S19  1  0.24376764  0.23927568  0.40242629  1.0
  S  S19  1  0.02273982  0.11889111  0.34894956  1.0
  S  S19  1  0.19792448  0.11617199  0.71741227  1.0
  S  S19  1  0.23206481  0.22784699  0.73003314  1.0
  S  S19  1  0.23980443  0.37650180  0.61636825  1.0
  S  S19  1  0.23256925  0.40527302  0.16814384  1.0
  S  S19  1  0.23364812  0.41048546  0.28281982  1.0
  S  S19  1  0.24436343  0.40267421  0.39537737  1.0
  S  S19  1  0.24172204  0.41390043  0.62371388  1.0
  S  S19  1  0.23546345  0.41194811  0.96015618  1.0
  S  S19  1  0.23894190  0.57092236  0.07145760  1.0
  S  S19  1  0.23905230  0.57835890  0.17780669  1.0
  S  S19  1  0.22926747  0.57318465  0.30283528  1.0
  S  S19  1  0.23238678  0.58422900  0.40303381  1.0
  S  S19  1  0.23765085  0.56614331  0.50978263  1.0
  S  S19  1  0.23245663  0.58033343  0.61857205  1.0
  S  S19  1  0.23874002  0.57548509  0.72975776  1.0
  S  S19  1  0.24361965  0.57292010  0.83249206  1.0
  S  S19  1  0.23823266  0.74794526  0.29539921  1.0
  S  S19  1  0.24023905  0.75004882  0.40135051  1.0
  S  S19  1  0.23165871  0.73707519  0.49704318  1.0
  S  S19  1  0.23720179  0.74631006  0.94494144  1.0
  S  S19  1  0.24393980  0.90907463  0.06046212  1.0
  S  S19  1  0.22941004  0.91943658  0.51643549  1.0
  S  S19  1  0.23621237  0.91526259  0.84260977  1.0
  S  S19  1  0.23446254  0.90572576  0.95296892  1.0
  S  S19  1  0.43645884  0.07755083  0.07589059  1.0
  S  S19  1  0.44885396  0.06905047  0.17895811  1.0
  S  S19  1  0.43886219  0.07873229  0.28549344  1.0
  S  S19  1  0.44019631  0.06797291  0.41709988  1.0
  S  S19  1  0.43984756  0.07731802  0.50096031  1.0
  S  S19  1  0.43400967  0.06743205  0.62883197  1.0
  S  S19  1  0.43079072  0.07421374  0.73246243  1.0
  S  S19  1  0.43984233  0.06850379  0.84780429  1.0
  S  S19  1  0.64369522  0.28765103  0.17625625  1.0
  S  S19  1  0.44060785  0.24458820  0.39323259  1.0
  S  S19  1  0.44098086  0.25223632  0.51801098  1.0
  S  S19  1  0.43689096  0.41066005  0.06711181  1.0
  S  S19  1  0.43307007  0.40896189  0.18950829  1.0
  S  S19  1  0.43523214  0.41029100  0.29000503  1.0
  S  S19  1  0.43543630  0.41943928  0.41125086  1.0
  S  S19  1  0.55079454  0.65484263  0.95645067  1.0
  S  S19  1  0.43822822  0.40285442  0.84091708  1.0
  S  S19  1  0.43831283  0.57352596  0.06000854  1.0
  S  S19  1  0.43839230  0.56868276  0.17427517  1.0
  S  S19  1  0.44014798  0.57358135  0.28611187  1.0
  S  S19  1  0.45072969  0.58491155  0.39963432  1.0
  S  S19  1  0.43241631  0.58129919  0.52354826  1.0
  S  S19  1  0.44474668  0.56777297  0.62006794  1.0
  S  S19  1  0.43382079  0.57073260  0.84930448  1.0
  S  S19  1  0.44362618  0.58759905  0.95866266  1.0
  S  S19  1  0.43708323  0.73859410  0.06015696  1.0
  S  S19  1  0.25683984  0.91215730  0.97978554  1.0
  S  S19  1  0.43596389  0.72434994  0.29229203  1.0
  S  S19  1  0.48274869  0.74722808  0.30311238  1.0
  S  S19  1  0.43519646  0.73627680  0.62846243  1.0
  S  S19  1  0.44552364  0.74911649  0.73345510  1.0
  S  S19  1  0.43815754  0.74964398  0.84243762  1.0
  S  S19  1  0.44405802  0.73717685  0.95957973  1.0
  S  S19  1  0.44389547  0.90301926  0.06077449  1.0
  S  S19  1  0.43725799  0.91227421  0.17309169  1.0
  S  S19  1  0.53794027  0.94576282  0.51395558  1.0
  S  S19  1  0.19153386  0.08562018  0.30868074  1.0
  S  S19  1  0.43376721  0.90049239  0.83888700  1.0
  S  S19  1  0.43716292  0.90392427  0.95036741  1.0
  S  S19  1  0.63729143  0.06656193  0.05994804  1.0
  S  S19  1  0.63857047  0.07798801  0.18116632  1.0
  S  S19  1  0.63825354  0.07655481  0.29103639  1.0
  S  S19  1  0.63843003  0.07045254  0.39432283  1.0
  S  S19  1  0.64584984  0.09593826  0.51379822  1.0
  S  S19  1  0.63165510  0.09553184  0.62091643  1.0
  S  S19  1  0.63960123  0.07624254  0.73302410  1.0
  S  S19  1  0.63805679  0.08155474  0.84357873  1.0
  S  S19  1  0.64212428  0.24573281  0.17577519  1.0
  S  S19  1  0.62996814  0.23799948  0.29144459  1.0
  S  S19  1  0.63901469  0.23807482  0.39891582  1.0
  S  S19  1  0.63852664  0.24657876  0.63081447  1.0
  S  S19  1  0.62595524  0.25307258  0.73574271  1.0
  S  S19  1  0.63233668  0.24403647  0.85100042  1.0
  S  S19  1  0.80871490  0.27848743  0.88426680  1.0
  S  S19  1  0.63102093  0.41076951  0.06691003  1.0
  S  S19  1  0.64240979  0.41238488  0.29243329  1.0
  S  S19  1  0.63026132  0.41989009  0.40662830  1.0
  S  S19  1  0.63493872  0.40079105  0.73932682  1.0
  S  S19  1  0.62965433  0.56921766  0.06001520  1.0
  S  S19  1  0.63699660  0.57366562  0.17217762  1.0
  S  S19  1  0.63306831  0.56810485  0.28307338  1.0
  S  S19  1  0.64133775  0.58151823  0.40272625  1.0
  S  S19  1  0.64725670  0.56957680  0.50478026  1.0
  S  S19  1  0.63968790  0.57984805  0.73209440  1.0
  S  S19  1  0.63735609  0.56988046  0.82863112  1.0
  S  S19  1  0.64200946  0.57965981  0.95084722  1.0
  S  S19  1  0.63472369  0.73902544  0.28552314  1.0
  S  S19  1  0.59250337  0.90401319  0.53129346  1.0
  S  S19  1  0.63499524  0.73090204  0.61903022  1.0
  S  S19  1  0.64828475  0.74056965  0.73228458  1.0
  S  S19  1  0.63752036  0.74423404  0.96263404  1.0
  S  S19  1  0.63444670  0.90876794  0.06974033  1.0
  S  S19  1  0.54643499  0.75044468  0.48736042  1.0
  S  S19  1  0.63488516  0.90864613  0.39240546  1.0
  S  S19  1  0.39220723  0.66066461  0.63657184  1.0
  S  S19  1  0.63593335  0.90766679  0.62570457  1.0
  S  S19  1  0.63436093  0.90591425  0.73094945  1.0
  S  S19  1  0.64004054  0.92096440  0.83640666  1.0
  S  S19  1  0.82542423  0.08782568  0.16651414  1.0
  S  S19  1  0.84480631  0.08393241  0.29053132  1.0
  S  S19  1  0.84354801  0.06522367  0.39131177  1.0
  S  S19  1  0.83893388  0.07349747  0.50531940  1.0
  S  S19  1  0.84151357  0.07793328  0.62661531  1.0
  S  S19  1  0.83562339  0.07626672  0.74039706  1.0
  S  S19  1  0.82777910  0.07011536  0.83760415  1.0
  S  S19  1  0.84827292  0.09142147  0.95585368  1.0
  S  S19  1  0.84056753  0.24087500  0.06541373  1.0
  S  S19  1  0.83789712  0.23482651  0.18005199  1.0
  S  S19  1  0.83253360  0.23912418  0.29013410  1.0
  S  S19  1  0.83570618  0.24330286  0.50985410  1.0
  S  S19  1  0.84602917  0.23737713  0.62324101  1.0
  S  S19  1  0.83575861  0.24941865  0.84163891  1.0
  S  S19  1  0.83292468  0.23921830  0.95623551  1.0
  S  S19  1  0.83950342  0.41297992  0.17562992  1.0
  S  S19  1  0.83728478  0.39079797  0.39621582  1.0
  S  S19  1  0.84691007  0.40964562  0.72598641  1.0
  S  S19  1  0.83554543  0.57273644  0.07117302  1.0
  S  S19  1  0.84231555  0.57161515  0.17650935  1.0
  S  S19  1  0.83181994  0.57255444  0.28435444  1.0
  S  S19  1  0.83397415  0.57859459  0.40602618  1.0
  S  S19  1  0.83717910  0.56994855  0.51092239  1.0
  S  S19  1  0.83852574  0.57521836  0.85324829  1.0
  S  S19  1  0.84021798  0.57965956  0.94140457  1.0
  S  S19  1  0.83267303  0.74615987  0.06689031  1.0
  S  S19  1  0.83580403  0.74313061  0.29494559  1.0
  S  S19  1  0.84763955  0.61424310  0.59172795  1.0
  S  S19  1  0.83996681  0.73954976  0.84776782  1.0
  S  S19  1  0.83507369  0.90629571  0.07812488  1.0
  S  S19  1  0.83080890  0.90970028  0.16510756  1.0
  S  S19  1  0.84157829  0.92686920  0.40581215  1.0
  S  S19  1  0.84415994  0.90911545  0.62603226  1.0
  S  S19  1  0.84002167  0.92238597  0.83619877  1.0
  S  S19  1  0.84625403  0.91098454  0.94685374  1.0
