# generated using pymatgen
data_P216S691
_symmetry_space_group_name_H-M   'P 1'
_cell_length_a   18.56651400
_cell_length_b   50.51150296
_cell_length_c   38.01939855
_cell_angle_alpha   107.48331704
_cell_angle_beta   103.55243778
_cell_angle_gamma   101.86041383
_symmetry_Int_Tables_number   1
_chemical_formula_structural   P216S691
_chemical_formula_sum   'P216 S691'
_cell_volume   31563.62152979
_cell_formula_units_Z   1
loop_
 _symmetry_equiv_pos_site_id
 _symmetry_equiv_pos_as_xyz
  1  'x, y, z'
loop_
 _atom_type_symbol
 _atom_type_oxidation_number
  P5+  5.0
  S2-  -2.0
loop_
 _atom_site_type_symbol
 _atom_site_label
 _atom_site_symmetry_multiplicity
 _atom_site_fract_x
 _atom_site_fract_y
 _atom_site_fract_z
 _atom_site_occupancy
  P5+  P14  1  0.26452510  0.52845081  0.07989171  1.0
  P5+  P14  1  0.26583606  0.43118785  0.61576958  1.0
  P5+  P14  1  0.14000883  0.22848353  0.57938863  1.0
  P5+  P14  1  0.28857084  0.33598931  0.43919740  1.0
  P5+  P14  1  0.15090136  0.36281544  0.42398755  1.0
  P5+  P14  1  0.18031575  0.63254284  0.45197664  1.0
  P5+  P14  1  0.07593832  0.35250678  0.50103658  1.0
  P5+  P14  1  0.44952496  0.71012156  0.40636457  1.0
  P5+  P14  1  0.35939785  0.38572698  0.58886053  1.0
  P5+  P14  1  0.15938836  0.88509163  0.09218256  1.0
  P5+  P14  1  0.13670455  0.62393927  0.46139042  1.0
  P5+  P14  1  0.17115223  0.85333533  0.74169580  1.0
  P5+  P14  1  0.48880911  0.11012807  0.08273525  1.0
  P5+  P14  1  0.36558658  0.34960456  0.59166278  1.0
  P5+  P14  1  0.56641419  0.31341649  0.86102149  1.0
  P5+  P14  1  0.46971171  0.38291750  0.14201897  1.0
  P5+  P14  1  0.51364814  0.37390204  0.43563153  1.0
  P5+  P14  1  0.42983705  0.64966813  0.71830026  1.0
  P5+  P14  1  0.52019690  0.62237760  0.10225875  1.0
  P5+  P14  1  0.48696731  0.62272170  0.43403329  1.0
  P5+  P14  1  0.32834863  0.58779323  0.79906760  1.0
  P5+  P14  1  0.51897123  0.87402636  0.09243746  1.0
  P5+  P14  1  0.50300341  0.87870852  0.44018796  1.0
  P5+  P14  1  0.46741576  0.68079124  0.42777084  1.0
  P5+  P14  1  0.81835744  0.11893137  0.09396231  1.0
  P5+  P14  1  0.82050469  0.12025613  0.43781521  1.0
  P5+  P14  1  0.85132382  0.12487158  0.74385757  1.0
  P5+  P14  1  0.86221362  0.36767304  0.08884961  1.0
  P5+  P14  1  0.60801906  0.22768089  0.52231361  1.0
  P5+  P14  1  0.76016475  0.64493824  0.59693694  1.0
  P5+  P14  1  0.51105833  0.78033590  0.07499544  1.0
  P5+  P14  1  0.74829306  0.35540516  0.65932815  1.0
  P5+  P14  1  0.87481989  0.65415466  0.65240283  1.0
  P5+  P14  1  0.59131562  0.61420157  0.53279424  1.0
  P5+  P14  1  0.55260183  0.75461907  0.42222383  1.0
  P5+  P14  1  0.83226723  0.85356249  0.75516215  1.0
  P5+  P15  1  0.51547368  0.43688149  0.25048703  1.0
  P5+  P15  1  0.28651838  0.20700153  0.50592549  1.0
  P5+  P15  1  0.34722890  0.46881798  0.55943539  1.0
  P5+  P15  1  0.24836469  0.44165547  0.14253736  1.0
  P5+  P15  1  0.43684641  0.55498957  0.56237211  1.0
  P5+  P15  1  0.37996689  0.32462576  0.83657225  1.0
  P5+  P15  1  0.31802813  0.62197635  0.27928050  1.0
  P5+  P15  1  0.27283199  0.69010922  0.48415660  1.0
  P5+  P15  1  0.31123092  0.68534566  0.81330663  1.0
  P5+  P15  1  0.18123402  0.69112822  0.41143687  1.0
  P5+  P15  1  0.29024318  0.95265848  0.48879594  1.0
  P5+  P15  1  0.14466293  0.51605096  0.67437858  1.0
  P5+  P15  1  0.62627891  0.24686727  0.37596155  1.0
  P5+  P15  1  0.58779037  0.19371846  0.48534855  1.0
  P5+  P15  1  0.62639347  0.20269984  0.81395391  1.0
  P5+  P15  1  0.58921146  0.44588454  0.15994882  1.0
  P5+  P15  1  0.40122903  0.42062113  0.67721744  1.0
  P5+  P15  1  0.63142476  0.45797861  0.83723479  1.0
  P5+  P15  1  0.73188905  0.57657654  0.13828632  1.0
  P5+  P15  1  0.60954115  0.69476371  0.49932616  1.0
  P5+  P15  1  0.61385585  0.70138626  0.82198243  1.0
  P5+  P15  1  0.57262074  0.91850744  0.13194737  1.0
  P5+  P15  1  0.65780501  0.93900567  0.47270226  1.0
  P5+  P15  1  0.64618610  0.95196265  0.82567713  1.0
  P5+  P15  1  0.93453265  0.38875154  0.31861715  1.0
  P5+  P15  1  0.97029906  0.21088703  0.48415122  1.0
  P5+  P15  1  0.89557379  0.14051089  0.60952006  1.0
  P5+  P15  1  0.79370479  0.54495400  0.15463580  1.0
  P5+  P15  1  0.88440674  0.28281336  0.47707214  1.0
  P5+  P15  1  0.90664866  0.45128943  0.80378426  1.0
  P5+  P15  1  0.92795964  0.63567930  0.22568299  1.0
  P5+  P15  1  0.90377368  0.67815018  0.57487259  1.0
  P5+  P15  1  0.93958707  0.69479746  0.81192535  1.0
  P5+  P15  1  0.63820049  0.78853853  0.14710572  1.0
  P5+  P15  1  0.95277037  0.95149926  0.48586290  1.0
  P5+  P15  1  0.92975505  0.88294914  0.75767546  1.0
  P5+  P16  1  0.38594826  0.10800950  0.37985603  1.0
  P5+  P16  1  0.54397922  0.17137533  0.56470093  1.0
  P5+  P16  1  0.52861902  0.47967550  0.70423202  1.0
  P5+  P16  1  0.29611510  0.29817900  0.32740690  1.0
  P5+  P16  1  0.28432583  0.28764156  0.45401199  1.0
  P5+  P16  1  0.53094344  0.55559446  0.56768904  1.0
  P5+  P16  1  0.29143726  0.53954858  0.31503435  1.0
  P5+  P16  1  0.31010166  0.53912740  0.63806550  1.0
  P5+  P16  1  0.28357906  0.54558488  0.98720239  1.0
  P5+  P16  1  0.35925100  0.53662114  0.52304956  1.0
  P5+  P16  1  0.33056636  0.79711503  0.63459527  1.0
  P5+  P16  1  0.24276612  0.79032670  0.93165119  1.0
  P5+  P16  1  0.79280641  0.08925436  0.47436690  1.0
  P5+  P16  1  0.48514669  0.42712388  0.49646565  1.0
  P5+  P16  1  0.70474625  0.29216879  0.73487239  1.0
  P5+  P16  1  0.37691414  0.48900289  0.49132077  1.0
  P5+  P16  1  0.41789038  0.51892746  0.52780513  1.0
  P5+  P16  1  0.52007736  0.24519670  0.97548645  1.0
  P5+  P16  1  0.64431228  0.54301533  0.32407046  1.0
  P5+  P16  1  0.36962707  0.39387721  0.66945930  1.0
  P5+  P16  1  0.58062481  0.35261580  0.87724584  1.0
  P5+  P16  1  0.31372652  0.54798963  0.60246573  1.0
  P5+  P16  1  0.55722277  0.83339982  0.47452553  1.0
  P5+  P16  1  0.61656344  0.78799593  0.97223264  1.0
  P5+  P16  1  0.47102617  0.47417216  0.52399043  1.0
  P5+  P16  1  0.49314578  0.17005132  0.77313684  1.0
  P5+  P16  1  0.13557143  0.31882847  0.57738670  1.0
  P5+  P16  1  0.94354251  0.39653279  0.45690089  1.0
  P5+  P16  1  0.19731280  0.19069589  0.43745986  1.0
  P5+  P16  1  0.36131567  0.50341584  0.67681030  1.0
  P5+  P16  1  0.92193964  0.70016583  0.59414638  1.0
  P5+  P16  1  0.95808069  0.43758368  0.50206703  1.0
  P5+  P16  1  0.96335609  0.55459298  0.98057151  1.0
  P5+  P16  1  0.96203808  0.79251859  0.31285978  1.0
  P5+  P16  1  0.96475101  0.85353789  0.70698127  1.0
  P5+  P16  1  0.95496252  0.78471889  0.98427786  1.0
  P5+  P17  1  0.04447458  0.20875849  0.02447672  1.0
  P5+  P17  1  0.22293886  0.16750699  0.30053687  1.0
  P5+  P17  1  0.31958645  0.35179672  0.65640336  1.0
  P5+  P17  1  0.03336440  0.45533882  0.01398830  1.0
  P5+  P17  1  0.05065250  0.46538204  0.35444784  1.0
  P5+  P17  1  0.02378301  0.45087374  0.67673389  1.0
  P5+  P17  1  0.06768604  0.82632339  0.18689858  1.0
  P5+  P17  1  0.03068689  0.71232222  0.34277664  1.0
  P5+  P17  1  0.36245025  0.59361425  0.38123266  1.0
  P5+  P17  1  0.39399210  0.83802615  0.08164125  1.0
  P5+  P17  1  0.11562524  0.90006083  0.26408406  1.0
  P5+  P17  1  0.05178338  0.95514385  0.68220001  1.0
  P5+  P17  1  0.38233304  0.21191500  0.02223889  1.0
  P5+  P17  1  0.38135237  0.20361111  0.35062395  1.0
  P5+  P17  1  0.39774494  0.21978431  0.70940461  1.0
  P5+  P17  1  0.44578948  0.65331166  0.37974012  1.0
  P5+  P17  1  0.58028403  0.34111175  0.49025996  1.0
  P5+  P17  1  0.46383110  0.33769330  0.54326525  1.0
  P5+  P17  1  0.39791376  0.39517555  0.25017382  1.0
  P5+  P17  1  0.38226562  0.70723393  0.35579761  1.0
  P5+  P17  1  0.38849210  0.71960316  0.69280153  1.0
  P5+  P17  1  0.26868691  0.60247935  0.07778847  1.0
  P5+  P17  1  0.25358974  0.81186783  0.44748386  1.0
  P5+  P17  1  0.43096520  0.69105606  0.71575421  1.0
  P5+  P17  1  0.71458812  0.20725712  0.01992148  1.0
  P5+  P17  1  0.58195179  0.23717560  0.28274830  1.0
  P5+  P17  1  0.53836751  0.46750747  0.30022628  1.0
  P5+  P17  1  0.59999017  0.47218845  0.21123917  1.0
  P5+  P17  1  0.80380121  0.57081055  0.26608872  1.0
  P5+  P17  1  0.73782024  0.45770837  0.72043642  1.0
  P5+  P17  1  0.75776390  0.73327635  0.05189721  1.0
  P5+  P17  1  0.58310667  0.52439758  0.27385801  1.0
  P5+  P17  1  0.51798265  0.59638503  0.60374862  1.0
  P5+  P17  1  0.72745513  0.96709983  0.01662150  1.0
  P5+  P17  1  0.76332028  0.71442868  0.55574035  1.0
  P5+  P17  1  0.46568234  0.56373609  0.54695515  1.0
  P5+  P18  1  0.14125629  0.12622245  0.24810333  1.0
  P5+  P18  1  0.16063626  0.13310894  0.58300061  1.0
  P5+  P18  1  0.34097178  0.18173704  0.95498052  1.0
  P5+  P18  1  0.07740133  0.26810216  0.48412857  1.0
  P5+  P18  1  0.18612334  0.38154410  0.57030519  1.0
  P5+  P18  1  0.35345104  0.41634675  0.71832166  1.0
  P5+  P18  1  0.38808973  0.72180444  0.25491232  1.0
  P5+  P18  1  0.28684326  0.77259624  0.47819128  1.0
  P5+  P18  1  0.13219430  0.62835703  0.91268189  1.0
  P5+  P18  1  0.39242856  0.50009940  0.44964752  1.0
  P5+  P18  1  0.37614803  0.58531624  0.54299151  1.0
  P5+  P18  1  0.14645209  0.87873527  0.89311028  1.0
  P5+  P18  1  0.48920469  0.29002382  0.45491843  1.0
  P5+  P18  1  0.48244935  0.12992739  0.57345812  1.0
  P5+  P18  1  0.42872233  0.25429931  0.87326981  1.0
  P5+  P18  1  0.51781500  0.38543079  0.24925365  1.0
  P5+  P18  1  0.57907267  0.36132639  0.55256345  1.0
  P5+  P18  1  0.48674038  0.38597935  0.89550761  1.0
  P5+  P18  1  0.49594244  0.62904829  0.22885781  1.0
  P5+  P18  1  0.60525773  0.48825770  0.71074633  1.0
  P5+  P18  1  0.49148378  0.63902713  0.91058813  1.0
  P5+  P18  1  0.57115274  0.83822623  0.41847564  1.0
  P5+  P18  1  0.50124487  0.87994216  0.58176715  1.0
  P5+  P18  1  0.47190844  0.89691284  0.91776544  1.0
  P5+  P18  1  0.61982185  0.32308382  0.51366364  1.0
  P5+  P18  1  0.68644157  0.28374949  0.52638327  1.0
  P5+  P18  1  0.84308259  0.12519551  0.89810704  1.0
  P5+  P18  1  0.86258544  0.38496843  0.25714713  1.0
  P5+  P18  1  0.81040587  0.37508942  0.56671432  1.0
  P5+  P18  1  0.51994747  0.25323480  0.82214619  1.0
  P5+  P18  1  0.76220943  0.59636005  0.50599086  1.0
  P5+  P18  1  0.62547302  0.53099602  0.65191758  1.0
  P5+  P18  1  0.83504067  0.62201211  0.88678766  1.0
  P5+  P18  1  0.55609518  0.78475513  0.28298727  1.0
  P5+  P18  1  0.82675471  0.87420376  0.57668796  1.0
  P5+  P18  1  0.91733039  0.46593744  0.38860789  1.0
  P5+  P19  1  0.09209630  0.13829176  0.35314400  1.0
  P5+  P19  1  0.16311790  0.48086480  0.65189901  1.0
  P5+  P19  1  0.07467739  0.06032040  0.86646762  1.0
  P5+  P19  1  0.18736937  0.29124400  0.33731227  1.0
  P5+  P19  1  0.06085263  0.54350680  0.46802528  1.0
  P5+  P19  1  0.06401196  0.30604821  0.86049421  1.0
  P5+  P19  1  0.49255784  0.73433539  0.15789450  1.0
  P5+  P19  1  0.31362589  0.45726678  0.50281215  1.0
  P5+  P19  1  0.21798581  0.56592409  0.81042517  1.0
  P5+  P19  1  0.36323493  0.52474568  0.42980648  1.0
  P5+  P19  1  0.03701665  0.80949718  0.51565261  1.0
  P5+  P19  1  0.15333990  0.79798867  0.88921373  1.0
  P5+  P19  1  0.33431259  0.11002197  0.24320032  1.0
  P5+  P19  1  0.36793631  0.35569141  0.27140951  1.0
  P5+  P19  1  0.40037230  0.05198162  0.85733292  1.0
  P5+  P19  1  0.50524430  0.25605800  0.24902046  1.0
  P5+  P19  1  0.41432392  0.20252314  0.44860245  1.0
  P5+  P19  1  0.27000150  0.33448380  0.49685562  1.0
  P5+  P19  1  0.54621943  0.66367720  0.32830106  1.0
  P5+  P19  1  0.38630566  0.55596501  0.52655682  1.0
  P5+  P19  1  0.59182096  0.35556108  0.56887112  1.0
  P5+  P19  1  0.38355636  0.79415245  0.17954322  1.0
  P5+  P19  1  0.32288063  0.44265607  0.72964753  1.0
  P5+  P19  1  0.29032095  0.48668902  0.67225529  1.0
  P5+  P19  1  0.74259218  0.06177923  0.20240100  1.0
  P5+  P19  1  0.86747621  0.20965206  0.47444045  1.0
  P5+  P19  1  0.71749171  0.04816125  0.84282572  1.0
  P5+  P19  1  0.75486230  0.30362510  0.17886961  1.0
  P5+  P19  1  0.46379502  0.42538329  0.51426119  1.0
  P5+  P19  1  0.63921322  0.44068659  0.75324561  1.0
  P5+  P19  1  0.74918179  0.56933868  0.20841005  1.0
  P5+  P19  1  0.69944469  0.54345581  0.52000012  1.0
  P5+  P19  1  0.77137825  0.58528979  0.57493672  1.0
  P5+  P19  1  0.75344066  0.79374324  0.16067899  1.0
  P5+  P19  1  0.59025266  0.69182096  0.38464882  1.0
  P5+  P19  1  0.73811977  0.80709290  0.84309673  1.0
  S2-  S20  1  0.33079506  0.20401379  0.44798874  1.0
  S2-  S20  1  0.29860262  0.45580487  0.10828605  1.0
  S2-  S20  1  0.28356617  0.60402113  0.33701988  1.0
  S2-  S20  1  0.30662668  0.69785672  0.44214930  1.0
  S2-  S20  1  0.32288116  0.70744575  0.77545653  1.0
  S2-  S20  1  0.17997119  0.66320497  0.43962412  1.0
  S2-  S20  1  0.27730240  0.95167775  0.44778052  1.0
  S2-  S20  1  0.32212060  0.94446222  0.76184451  1.0
  S2-  S20  1  0.63607631  0.20992506  0.09363977  1.0
  S2-  S20  1  0.38764110  0.53875485  0.54040881  1.0
  S2-  S20  1  0.60855767  0.20470683  0.76638872  1.0
  S2-  S20  1  0.66347569  0.45800137  0.10580499  1.0
  S2-  S20  1  0.64811965  0.45156716  0.44732081  1.0
  S2-  S20  1  0.63747351  0.46098218  0.77874933  1.0
  S2-  S20  1  0.68986831  0.70375824  0.11477521  1.0
  S2-  S20  1  0.62799543  0.70412076  0.41683231  1.0
  S2-  S20  1  0.65064551  0.71286198  0.78069568  1.0
  S2-  S20  1  0.60995857  0.94887369  0.08148405  1.0
  S2-  S20  1  0.64700614  0.94753839  0.43747339  1.0
  S2-  S20  1  0.64110226  0.96380677  0.77752393  1.0
  S2-  S20  1  0.92688663  0.43802162  0.36788904  1.0
  S2-  S20  1  0.97499486  0.21629759  0.42890757  1.0
  S2-  S20  1  0.86198260  0.11568870  0.53927907  1.0
  S2-  S20  1  0.98165600  0.45776493  0.11338421  1.0
  S2-  S20  1  0.79262616  0.46638531  0.74685039  1.0
  S2-  S20  1  0.95983509  0.70826385  0.77070535  1.0
  S2-  S20  1  0.96323414  0.94003709  0.43499190  1.0
  S2-  S20  1  0.97026246  0.95077776  0.75480711  1.0
  S2-  S21  1  0.25754031  0.55891711  0.07849158  1.0
  S2-  S21  1  0.04567032  0.13592121  0.42824057  1.0
  S2-  S21  1  0.09082124  0.23684037  0.53233756  1.0
  S2-  S21  1  0.06068296  0.37616196  0.10661439  1.0
  S2-  S21  1  0.06167685  0.38180240  0.41720406  1.0
  S2-  S21  1  0.08523061  0.63577451  0.43317030  1.0
  S2-  S21  1  0.09602524  0.63748129  0.77098919  1.0
  S2-  S21  1  0.05766348  0.86966074  0.09080841  1.0
  S2-  S21  1  0.04971725  0.86965541  0.77004541  1.0
  S2-  S21  1  0.38947070  0.12720593  0.09796918  1.0
  S2-  S21  1  0.42355365  0.12223798  0.43592576  1.0
  S2-  S21  1  0.42212697  0.13523646  0.76719108  1.0
  S2-  S21  1  0.38548992  0.36859441  0.44475407  1.0
  S2-  S21  1  0.62978990  0.50228062  0.71228235  1.0
  S2-  S21  1  0.40332058  0.63024463  0.10054555  1.0
  S2-  S21  1  0.40938410  0.62742273  0.43001273  1.0
  S2-  S21  1  0.42312815  0.63018946  0.77748587  1.0
  S2-  S21  1  0.40188644  0.86960676  0.10954343  1.0
  S2-  S21  1  0.39878288  0.87789433  0.43735485  1.0
  S2-  S21  1  0.41194388  0.88149045  0.77708573  1.0
  S2-  S21  1  0.73927818  0.13612166  0.10100530  1.0
  S2-  S21  1  0.73818262  0.12299117  0.42576422  1.0
  S2-  S21  1  0.76812313  0.14588194  0.77412010  1.0
  S2-  S21  1  0.75310530  0.37339403  0.09953083  1.0
  S2-  S21  1  0.59185995  0.20004737  0.52996988  1.0
  S2-  S21  1  0.73686457  0.33637799  0.71289782  1.0
  S2-  S21  1  0.57438065  0.58227200  0.54761864  1.0
  S2-  S21  1  0.68227637  0.87062271  0.42299671  1.0
  S2-  S21  1  0.75402209  0.88523656  0.76412791  1.0
  S2-  S22  1  0.28219405  0.14812547  0.14404751  1.0
  S2-  S22  1  0.26893170  0.14975167  0.81963027  1.0
  S2-  S22  1  0.25157770  0.39853656  0.81670060  1.0
  S2-  S22  1  0.24892647  0.65270086  0.12998942  1.0
  S2-  S22  1  0.29681557  0.90894684  0.17276536  1.0
  S2-  S22  1  0.27671308  0.89370924  0.48129214  1.0
  S2-  S22  1  0.58657125  0.41136981  0.13835654  1.0
  S2-  S22  1  0.56621399  0.64057745  0.46589632  1.0
  S2-  S22  1  0.90899131  0.14284830  0.15410477  1.0
  S2-  S22  1  0.93793011  0.15376600  0.49194607  1.0
  S2-  S22  1  0.92736786  0.14619408  0.79509295  1.0
  S2-  S22  1  0.92140570  0.41089614  0.47045588  1.0
  S2-  S22  1  0.93821312  0.40782090  0.81664220  1.0
  S2-  S22  1  0.93701531  0.65535335  0.14959479  1.0
  S2-  S22  1  0.94834215  0.64429207  0.47871364  1.0
  S2-  S22  1  0.88602298  0.63755149  0.79968342  1.0
  S2-  S22  1  0.94446686  0.91171308  0.16908701  1.0
  S2-  S23  1  0.17370388  0.04468110  0.51175916  1.0
  S2-  S23  1  0.12179234  0.03898574  0.84579845  1.0
  S2-  S23  1  0.28317778  0.28086867  0.41338544  1.0
  S2-  S23  1  0.15859439  0.29222037  0.84089921  1.0
  S2-  S23  1  0.57331654  0.75156889  0.13745849  1.0
  S2-  S23  1  0.15458088  0.53870294  0.49418711  1.0
  S2-  S23  1  0.13056385  0.52973928  0.84066323  1.0
  S2-  S23  1  0.15207284  0.78761961  0.18307861  1.0
  S2-  S23  1  0.14171462  0.78060327  0.49774937  1.0
  S2-  S23  1  0.17167049  0.78557168  0.84213332  1.0
  S2-  S23  1  0.31672728  0.14521799  0.30820128  1.0
  S2-  S23  1  0.45620456  0.03291715  0.49083309  1.0
  S2-  S23  1  0.48210981  0.04710880  0.83380554  1.0
  S2-  S23  1  0.50001972  0.29016736  0.16580815  1.0
  S2-  S23  1  0.40455502  0.15429523  0.39747552  1.0
  S2-  S23  1  0.48549481  0.29871778  0.84928160  1.0
  S2-  S23  1  0.46950588  0.54260372  0.18507136  1.0
  S2-  S23  1  0.51085004  0.53788758  0.51578325  1.0
  S2-  S23  1  0.49662726  0.53010856  0.83277924  1.0
  S2-  S23  1  0.51667183  0.78797478  0.15247787  1.0
  S2-  S23  1  0.48514856  0.79727348  0.50907817  1.0
  S2-  S23  1  0.49808335  0.79605769  0.84055435  1.0
  S2-  S23  1  0.80682815  0.04093905  0.17323433  1.0
  S2-  S23  1  0.89336645  0.24764140  0.46685910  1.0
  S2-  S23  1  0.83024092  0.04384667  0.83179595  1.0
  S2-  S23  1  0.80867999  0.29054535  0.16767020  1.0
  S2-  S23  1  0.82491321  0.28950202  0.50799497  1.0
  S2-  S23  1  0.79767951  0.52693772  0.14901740  1.0
  S2-  S23  1  0.82584865  0.54167915  0.51109825  1.0
  S2-  S23  1  0.81801268  0.54133774  0.84758352  1.0
  S2-  S23  1  0.81408966  0.77315933  0.12443176  1.0
  S2-  S23  1  0.81067949  0.79120491  0.49911367  1.0
  S2-  S23  1  0.80927255  0.79109644  0.84013733  1.0
  S2-  S24  1  0.17830540  0.11135374  0.04297239  1.0
  S2-  S24  1  0.20964717  0.13112877  0.38624956  1.0
  S2-  S24  1  0.18204206  0.11380064  0.71779467  1.0
  S2-  S24  1  0.19238703  0.37166925  0.04167476  1.0
  S2-  S24  1  0.18554678  0.37489714  0.36945850  1.0
  S2-  S24  1  0.22157419  0.37958842  0.71405324  1.0
  S2-  S24  1  0.16246753  0.60726407  0.02463135  1.0
  S2-  S24  1  0.20103150  0.62246478  0.38221482  1.0
  S2-  S24  1  0.15454016  0.61782634  0.71526996  1.0
  S2-  S24  1  0.17907852  0.86210961  0.03746021  1.0
  S2-  S24  1  0.17617969  0.87258438  0.37568546  1.0
  S2-  S24  1  0.18998635  0.86246424  0.70285661  1.0
  S2-  S24  1  0.53170719  0.11157487  0.03242022  1.0
  S2-  S24  1  0.52539731  0.12227816  0.37336148  1.0
  S2-  S24  1  0.51873402  0.12388590  0.71713560  1.0
  S2-  S24  1  0.50471533  0.37278423  0.05365163  1.0
  S2-  S24  1  0.51307874  0.36336488  0.36336585  1.0
  S2-  S24  1  0.52329418  0.37716419  0.71194013  1.0
  S2-  S24  1  0.51858276  0.61390948  0.04752291  1.0
  S2-  S24  1  0.49894377  0.61711748  0.37710225  1.0
  S2-  S24  1  0.48760336  0.62154264  0.69773459  1.0
  S2-  S24  1  0.51905049  0.86811176  0.05811276  1.0
  S2-  S24  1  0.52361159  0.88242647  0.38569657  1.0
  S2-  S24  1  0.50899219  0.87256567  0.70638760  1.0
  S2-  S24  1  0.85425907  0.11575173  0.05410555  1.0
  S2-  S24  1  0.86947828  0.12061529  0.39142899  1.0
  S2-  S24  1  0.86085376  0.12756712  0.71320840  1.0
  S2-  S24  1  0.86005753  0.36987683  0.04383089  1.0
  S2-  S24  1  0.85329736  0.36603976  0.37094237  1.0
  S2-  S24  1  0.85152007  0.37190626  0.70933731  1.0
  S2-  S24  1  0.87781824  0.62593323  0.04597955  1.0
  S2-  S24  1  0.88660280  0.63262455  0.36841085  1.0
  S2-  S24  1  0.86583802  0.61588810  0.71513346  1.0
  S2-  S24  1  0.86996985  0.86468792  0.02752594  1.0
  S2-  S24  1  0.86851983  0.87129115  0.36477997  1.0
  S2-  S24  1  0.89921130  0.87448070  0.72135131  1.0
  S2-  S25  1  0.16575938  0.12580365  0.29251410  1.0
  S2-  S25  1  0.12098937  0.12562673  0.62266728  1.0
  S2-  S25  1  0.40963733  0.20493538  0.95762714  1.0
  S2-  S25  1  0.15140641  0.38334042  0.63203991  1.0
  S2-  S25  1  0.16977716  0.38854146  0.96848695  1.0
  S2-  S25  1  0.17805570  0.63037144  0.62668077  1.0
  S2-  S25  1  0.15504017  0.62818048  0.97249147  1.0
  S2-  S25  1  0.46329731  0.46397910  0.47573653  1.0
  S2-  S25  1  0.14292807  0.88416631  0.94998295  1.0
  S2-  S25  1  0.49158991  0.31003839  0.51620482  1.0
  S2-  S25  1  0.46802786  0.13430759  0.62107705  1.0
  S2-  S25  1  0.40572330  0.29678763  0.86344453  1.0
  S2-  S25  1  0.42959295  0.38754750  0.19578541  1.0
  S2-  S25  1  0.48565292  0.38275838  0.61616340  1.0
  S2-  S25  1  0.48760415  0.38023854  0.95352892  1.0
  S2-  S25  1  0.46331691  0.63354381  0.29937855  1.0
  S2-  S25  1  0.47493742  0.62023588  0.94482173  1.0
  S2-  S25  1  0.48032425  0.88979704  0.29297523  1.0
  S2-  S25  1  0.46294274  0.86867690  0.61265492  1.0
  S2-  S25  1  0.45371093  0.87304888  0.95280504  1.0
  S2-  S25  1  0.81487091  0.14067674  0.30391845  1.0
  S2-  S25  1  0.79786400  0.12361217  0.96423157  1.0
  S2-  S25  1  0.82895761  0.36528028  0.28762023  1.0
  S2-  S25  1  0.81191047  0.38382581  0.64100134  1.0
  S2-  S25  1  0.42189093  0.19564485  0.80054534  1.0
  S2-  S25  1  0.83426278  0.62761076  0.28685296  1.0
  S2-  S25  1  0.80987104  0.63513736  0.95570973  1.0
  S2-  S25  1  0.81834234  0.87977334  0.62419604  1.0
  S2-  S25  1  0.82191073  0.87647052  0.95381661  1.0
  S2-  S26  1  0.19347789  0.20362465  0.15242142  1.0
  S2-  S26  1  0.16878492  0.21559932  0.49382373  1.0
  S2-  S26  1  0.16792387  0.21563061  0.82351779  1.0
  S2-  S26  1  0.16983215  0.45878546  0.17038912  1.0
  S2-  S26  1  0.18175004  0.46381433  0.50116251  1.0
  S2-  S26  1  0.19928669  0.46835216  0.82699708  1.0
  S2-  S26  1  0.16248587  0.70312868  0.15448246  1.0
  S2-  S26  1  0.17035759  0.71102407  0.49361542  1.0
  S2-  S26  1  0.20377196  0.71196070  0.82725518  1.0
  S2-  S26  1  0.18682553  0.95334244  0.15819211  1.0
  S2-  S26  1  0.19131270  0.96090521  0.49863366  1.0
  S2-  S26  1  0.18059773  0.96757573  0.84450634  1.0
  S2-  S26  1  0.48573170  0.20213316  0.15441065  1.0
  S2-  S26  1  0.52422803  0.22243087  0.50164528  1.0
  S2-  S26  1  0.53119675  0.19669659  0.83019462  1.0
  S2-  S26  1  0.50298486  0.45529035  0.15534552  1.0
  S2-  S26  1  0.49728340  0.46294976  0.49454817  1.0
  S2-  S26  1  0.52768716  0.46584730  0.84296514  1.0
  S2-  S26  1  0.51509515  0.71317521  0.16415014  1.0
  S2-  S26  1  0.52697758  0.71262242  0.50886092  1.0
  S2-  S26  1  0.50312265  0.70011032  0.81641339  1.0
  S2-  S26  1  0.53137467  0.96021391  0.15882955  1.0
  S2-  S26  1  0.50192139  0.96150506  0.49808302  1.0
  S2-  S26  1  0.52243877  0.95840943  0.82860019  1.0
  S2-  S26  1  0.85532438  0.21129903  0.15253353  1.0
  S2-  S26  1  0.85299780  0.20718801  0.50151597  1.0
  S2-  S26  1  0.85853829  0.21551106  0.82821291  1.0
  S2-  S26  1  0.85532558  0.46980782  0.16871787  1.0
  S2-  S26  1  0.84477177  0.46591216  0.49163740  1.0
  S2-  S26  1  0.86526730  0.47204124  0.82267684  1.0
  S2-  S26  1  0.85119416  0.71272465  0.16800892  1.0
  S2-  S26  1  0.82341370  0.70004475  0.49567488  1.0
  S2-  S26  1  0.83607753  0.70508986  0.83609690  1.0
  S2-  S26  1  0.85355415  0.96055900  0.15996184  1.0
  S2-  S26  1  0.83515757  0.96446890  0.49740014  1.0
  S2-  S26  1  0.85420183  0.95930305  0.82531345  1.0
  S2-  S27  1  0.04956631  0.20826643  0.20122382  1.0
  S2-  S27  1  0.04501670  0.21054440  0.54840995  1.0
  S2-  S27  1  0.00741021  0.21114411  0.85915266  1.0
  S2-  S27  1  0.01710573  0.45620685  0.19762404  1.0
  S2-  S27  1  0.02891786  0.44929156  0.52484794  1.0
  S2-  S27  1  0.03526302  0.45346833  0.85604761  1.0
  S2-  S27  1  0.99419718  0.70486240  0.18496301  1.0
  S2-  S27  1  0.01736990  0.70741509  0.52630533  1.0
  S2-  S27  1  0.00478644  0.69538768  0.86051656  1.0
  S2-  S27  1  0.04558925  0.95660028  0.19851200  1.0
  S2-  S27  1  0.04335797  0.96948542  0.52645980  1.0
  S2-  S27  1  0.01932172  0.94795664  0.86367880  1.0
  S2-  S27  1  0.36712426  0.21051199  0.20202857  1.0
  S2-  S27  1  0.38771974  0.21269791  0.54393630  1.0
  S2-  S27  1  0.35693667  0.21697031  0.86319899  1.0
  S2-  S27  1  0.35881776  0.46095454  0.20242875  1.0
  S2-  S27  1  0.34975238  0.45805781  0.54292936  1.0
  S2-  S27  1  0.35175476  0.46887516  0.86715907  1.0
  S2-  S27  1  0.32252903  0.70027366  0.18402797  1.0
  S2-  S27  1  0.35755256  0.70850502  0.51092487  1.0
  S2-  S27  1  0.36610405  0.70230630  0.87506723  1.0
  S2-  S27  1  0.36885938  0.96533760  0.21170642  1.0
  S2-  S27  1  0.38353593  0.95549368  0.52945843  1.0
  S2-  S27  1  0.36802225  0.96333778  0.86468789  1.0
  S2-  S27  1  0.70123383  0.21097248  0.19395272  1.0
  S2-  S27  1  0.68488790  0.20815574  0.53122770  1.0
  S2-  S27  1  0.71249111  0.21357030  0.86141237  1.0
  S2-  S27  1  0.68327186  0.45285639  0.20694321  1.0
  S2-  S27  1  0.69988322  0.45929320  0.53405734  1.0
  S2-  S27  1  0.69800764  0.46939076  0.87399379  1.0
  S2-  S27  1  0.69673066  0.70197910  0.18781954  1.0
  S2-  S27  1  0.69303787  0.70462239  0.52253090  1.0
  S2-  S27  1  0.69451175  0.70777637  0.86683347  1.0
  S2-  S27  1  0.68820295  0.95261605  0.18858933  1.0
  S2-  S27  1  0.71547436  0.95102356  0.53495067  1.0
  S2-  S27  1  0.70980571  0.95839700  0.88166200  1.0
  S2-  S28  1  0.13916795  0.25482211  0.06719056  1.0
  S2-  S28  1  0.11347761  0.24624280  0.73056718  1.0
  S2-  S28  1  0.15106890  0.49503070  0.06153924  1.0
  S2-  S28  1  0.09200852  0.49229170  0.39455988  1.0
  S2-  S28  1  0.13276868  0.50069858  0.74513138  1.0
  S2-  S28  1  0.10495653  0.85936322  0.21717551  1.0
  S2-  S28  1  0.10713507  0.74041004  0.39865025  1.0
  S2-  S28  1  0.10942115  0.74463082  0.73437948  1.0
  S2-  S28  1  0.42447308  0.80179957  0.08227032  1.0
  S2-  S28  1  0.15714787  0.99440583  0.71359272  1.0
  S2-  S28  1  0.47159847  0.23821841  0.08347548  1.0
  S2-  S28  1  0.44782075  0.23181375  0.37736142  1.0
  S2-  S28  1  0.48593597  0.25001513  0.75617820  1.0
  S2-  S28  1  0.45450338  0.49243329  0.06230351  1.0
  S2-  S28  1  0.35784437  0.44440343  0.48926773  1.0
  S2-  S28  1  0.43194012  0.73191426  0.05980435  1.0
  S2-  S28  1  0.42343503  0.72167316  0.39117537  1.0
  S2-  S28  1  0.43962626  0.74711844  0.73719073  1.0
  S2-  S28  1  0.47226354  0.00908719  0.40624708  1.0
  S2-  S28  1  0.45340900  0.99726117  0.73335434  1.0
  S2-  S28  1  0.80066312  0.23452637  0.05375472  1.0
  S2-  S28  1  0.79464188  0.23520466  0.40135650  1.0
  S2-  S28  1  0.79049983  0.23827229  0.73353126  1.0
  S2-  S28  1  0.51958206  0.46693090  0.24485347  1.0
  S2-  S28  1  0.87835445  0.59647218  0.25486639  1.0
  S2-  S28  1  0.80232791  0.50277711  0.73702518  1.0
  S2-  S28  1  0.56990711  0.47945794  0.27558520  1.0
  S2-  S28  1  0.78365509  0.74006026  0.74048850  1.0
  S2-  S28  1  0.80099418  0.00116147  0.07596894  1.0
  S2-  S28  1  0.72820430  0.68661539  0.58156489  1.0
  S2-  S28  1  0.42974658  0.51482796  0.51145436  1.0
  S2-  S29  1  0.08467502  0.33448723  0.55216974  1.0
  S2-  S29  1  0.04554247  0.29188672  0.31306652  1.0
  S2-  S29  1  0.10947876  0.16280309  0.41479284  1.0
  S2-  S29  1  0.26578887  0.51472451  0.63382703  1.0
  S2-  S29  1  0.06449885  0.53803508  0.29039600  1.0
  S2-  S29  1  0.07820652  0.53652665  0.63921211  1.0
  S2-  S29  1  0.08712136  0.54272962  0.98409658  1.0
  S2-  S29  1  0.05026288  0.78974018  0.31557296  1.0
  S2-  S29  1  0.08155507  0.78568479  0.65932596  1.0
  S2-  S29  1  0.05253877  0.77980098  0.96862702  1.0
  S2-  S29  1  0.40044725  0.03815169  0.98514962  1.0
  S2-  S29  1  0.40538513  0.29495344  0.31711560  1.0
  S2-  S29  1  0.36801669  0.53778916  0.29620506  1.0
  S2-  S29  1  0.41181180  0.54547441  0.64567052  1.0
  S2-  S29  1  0.42976820  0.54407626  0.99780265  1.0
  S2-  S29  1  0.39983147  0.78210381  0.65290599  1.0
  S2-  S29  1  0.39205329  0.78934789  0.98072736  1.0
  S2-  S29  1  0.75763444  0.29334247  0.32006176  1.0
  S2-  S29  1  0.69942889  0.28443581  0.64937181  1.0
  S2-  S29  1  0.73202523  0.52877442  0.29769691  1.0
  S2-  S29  1  0.73293054  0.53168447  0.63896926  1.0
  S2-  S29  1  0.75256517  0.54642046  0.98208902  1.0
  S2-  S29  1  0.73402872  0.78809474  0.31460587  1.0
  S2-  S29  1  0.73975134  0.79351317  0.64673474  1.0
  S2-  S29  1  0.71856131  0.79960188  0.99398747  1.0
  S2-  S30  1  0.17253220  0.08372664  0.10868618  1.0
  S2-  S30  1  0.20501637  0.08585543  0.43726818  1.0
  S2-  S30  1  0.22002659  0.08428252  0.76897124  1.0
  S2-  S30  1  0.20514873  0.33346853  0.10710066  1.0
  S2-  S30  1  0.19612319  0.33608216  0.42996348  1.0
  S2-  S30  1  0.17348414  0.34219596  0.77283647  1.0
  S2-  S30  1  0.19386834  0.57136419  0.10663517  1.0
  S2-  S30  1  0.17732863  0.57758354  0.43164122  1.0
  S2-  S30  1  0.17390910  0.58283071  0.76610184  1.0
  S2-  S30  1  0.21563799  0.84271260  0.12092074  1.0
  S2-  S30  1  0.14768983  0.82674249  0.41046337  1.0
  S2-  S30  1  0.16697025  0.82860560  0.76793681  1.0
  S2-  S30  1  0.51231528  0.07963253  0.10124923  1.0
  S2-  S30  1  0.49075151  0.07737238  0.42580510  1.0
  S2-  S30  1  0.52054090  0.08334392  0.78074551  1.0
  S2-  S30  1  0.53461812  0.32782427  0.09958341  1.0
  S2-  S30  1  0.51536707  0.32948850  0.43559040  1.0
  S2-  S30  1  0.49715784  0.33858635  0.78168424  1.0
  S2-  S30  1  0.51752222  0.58095466  0.10217774  1.0
  S2-  S30  1  0.53876938  0.58072683  0.44398188  1.0
  S2-  S30  1  0.54386044  0.59824532  0.77492729  1.0
  S2-  S30  1  0.48323972  0.82349583  0.09413241  1.0
  S2-  S30  1  0.53721020  0.82858609  0.43375729  1.0
  S2-  S30  1  0.52988843  0.82654639  0.76243749  1.0
  S2-  S30  1  0.84353506  0.09052685  0.11608637  1.0
  S2-  S30  1  0.82985172  0.08191461  0.44335572  1.0
  S2-  S30  1  0.86093173  0.07965100  0.75603764  1.0
  S2-  S30  1  0.87787040  0.33519342  0.09409898  1.0
  S2-  S30  1  0.86832548  0.32240356  0.43111820  1.0
  S2-  S30  1  0.86082593  0.34339769  0.77165287  1.0
  S2-  S30  1  0.84537932  0.57395149  0.09246344  1.0
  S2-  S30  1  0.83929105  0.57785093  0.43175926  1.0
  S2-  S30  1  0.80855732  0.57299171  0.75871043  1.0
  S2-  S30  1  0.85764568  0.83131946  0.10153930  1.0
  S2-  S30  1  0.84994391  0.83272131  0.43829839  1.0
  S2-  S30  1  0.86036971  0.82834835  0.77487445  1.0
  S2-  S31  1  0.30719640  0.04884896  0.14843161  1.0
  S2-  S31  1  0.26977150  0.03520910  0.46715106  1.0
  S2-  S31  1  0.27788685  0.05007493  0.79821369  1.0
  S2-  S31  1  0.30715592  0.29005286  0.12262278  1.0
  S2-  S31  1  0.32999622  0.30875325  0.47295711  1.0
  S2-  S31  1  0.27911916  0.27353357  0.80113878  1.0
  S2-  S31  1  0.30437551  0.52950622  0.11278854  1.0
  S2-  S31  1  0.26914577  0.54502004  0.47045444  1.0
  S2-  S31  1  0.28544121  0.54406836  0.80064785  1.0
  S2-  S31  1  0.29712331  0.79713999  0.12578259  1.0
  S2-  S31  1  0.31350021  0.78606031  0.48013307  1.0
  S2-  S31  1  0.27967082  0.78851891  0.79698114  1.0
  S2-  S31  1  0.63494710  0.04401337  0.12441136  1.0
  S2-  S31  1  0.63163012  0.04171295  0.46242763  1.0
  S2-  S31  1  0.63127531  0.03203047  0.79344397  1.0
  S2-  S31  1  0.61734045  0.28870246  0.14183980  1.0
  S2-  S31  1  0.66249020  0.29909814  0.46942355  1.0
  S2-  S31  1  0.64720223  0.29154487  0.80199985  1.0
  S2-  S31  1  0.63935875  0.55228107  0.14913856  1.0
  S2-  S31  1  0.64303324  0.53970123  0.46740599  1.0
  S2-  S31  1  0.63765085  0.53740987  0.80630063  1.0
  S2-  S31  1  0.61825277  0.79336775  0.11432070  1.0
  S2-  S31  1  0.63314678  0.80436339  0.47999101  1.0
  S2-  S31  1  0.65359842  0.78645957  0.80116116  1.0
  S2-  S31  1  0.98945578  0.04494128  0.14136284  1.0
  S2-  S31  1  0.98657945  0.03402576  0.46454347  1.0
  S2-  S31  1  0.93004004  0.03366930  0.80119424  1.0
  S2-  S31  1  0.95343137  0.29560937  0.14658068  1.0
  S2-  S31  1  0.96460378  0.29420275  0.47340974  1.0
  S2-  S31  1  0.94137196  0.28679127  0.78734144  1.0
  S2-  S31  1  0.95965715  0.54548274  0.12945945  1.0
  S2-  S31  1  0.95888300  0.53401267  0.47249989  1.0
  S2-  S31  1  0.96369793  0.55074545  0.80386638  1.0
  S2-  S31  1  0.94059633  0.78969650  0.12127914  1.0
  S2-  S31  1  0.97330948  0.78910729  0.46779477  1.0
  S2-  S31  1  0.95585193  0.78718985  0.78939459  1.0
  S2-  S32  1  0.08601440  0.09779338  0.18813962  1.0
  S2-  S32  1  0.06620117  0.09449496  0.85124876  1.0
  S2-  S32  1  0.07107283  0.34217772  0.17965385  1.0
  S2-  S32  1  0.09404167  0.34655671  0.52002889  1.0
  S2-  S32  1  0.05508342  0.60447119  0.18141652  1.0
  S2-  S32  1  0.06390884  0.83778132  0.52388616  1.0
  S2-  S32  1  0.42841660  0.10208297  0.18126458  1.0
  S2-  S32  1  0.41600072  0.09352647  0.84596351  1.0
  S2-  S32  1  0.39788278  0.59629183  0.51691521  1.0
  S2-  S32  1  0.77127170  0.11204464  0.52096832  1.0
  S2-  S32  1  0.72896985  0.09985381  0.85233116  1.0
  S2-  S32  1  0.75106318  0.35489715  0.19918604  1.0
  S2-  S32  1  0.75840900  0.35974400  0.85017696  1.0
  S2-  S32  1  0.76214050  0.59622906  0.53060940  1.0
  S2-  S32  1  0.71785866  0.84299719  0.18994804  1.0
  S2-  S33  1  0.24896444  0.05061776  0.04311863  1.0
  S2-  S33  1  0.27958504  0.04508887  0.36122927  1.0
  S2-  S33  1  0.28890680  0.04643185  0.69547204  1.0
  S2-  S33  1  0.26856344  0.29312500  0.02932930  1.0
  S2-  S33  1  0.25686427  0.29872352  0.36473644  1.0
  S2-  S33  1  0.27315520  0.29039258  0.70228053  1.0
  S2-  S33  1  0.28548129  0.55207449  0.04172917  1.0
  S2-  S33  1  0.26869459  0.53933954  0.37109918  1.0
  S2-  S33  1  0.27030937  0.54304424  0.69790604  1.0
  S2-  S33  1  0.26841995  0.79315629  0.04762400  1.0
  S2-  S33  1  0.25426017  0.78885175  0.37334299  1.0
  S2-  S33  1  0.26733152  0.79122513  0.70636197  1.0
  S2-  S33  1  0.58987978  0.04952209  0.03396689  1.0
  S2-  S33  1  0.61926521  0.04707343  0.36437045  1.0
  S2-  S33  1  0.62385052  0.04057604  0.70381647  1.0
  S2-  S33  1  0.63694484  0.30315797  0.03833630  1.0
  S2-  S33  1  0.61506432  0.29181953  0.38650462  1.0
  S2-  S33  1  0.62263089  0.29471251  0.70456816  1.0
  S2-  S33  1  0.61825812  0.54701286  0.03395916  1.0
  S2-  S33  1  0.60188821  0.54317381  0.35678765  1.0
  S2-  S33  1  0.61701396  0.53893523  0.69078934  1.0
  S2-  S33  1  0.60831628  0.79331554  0.03520926  1.0
  S2-  S33  1  0.59775125  0.79160394  0.37014192  1.0
  S2-  S33  1  0.62277458  0.79800935  0.70370220  1.0
  S2-  S33  1  0.94656382  0.04566726  0.02956386  1.0
  S2-  S33  1  0.97396094  0.05284937  0.38034287  1.0
  S2-  S33  1  0.93827729  0.04768075  0.70898258  1.0
  S2-  S33  1  0.93101049  0.30521650  0.02304712  1.0
  S2-  S33  1  0.96180260  0.30364311  0.37210902  1.0
  S2-  S33  1  0.94352045  0.29851899  0.71680979  1.0
  S2-  S33  1  0.93384481  0.53907057  0.02730808  1.0
  S2-  S33  1  0.92140917  0.55001977  0.36287601  1.0
  S2-  S33  1  0.94381205  0.55009714  0.69988631  1.0
  S2-  S33  1  0.94980105  0.78739344  0.03937351  1.0
  S2-  S33  1  0.94778620  0.79358650  0.36841604  1.0
  S2-  S33  1  0.92173470  0.79486867  0.69712919  1.0
  S2-  S34  1  0.18764241  0.00282099  0.26228979  1.0
  S2-  S34  1  0.18946173  0.99146528  0.60081209  1.0
  S2-  S34  1  0.19790960  0.99236644  0.94382476  1.0
  S2-  S34  1  0.23087710  0.25492181  0.26244785  1.0
  S2-  S34  1  0.21980161  0.25851765  0.60687437  1.0
  S2-  S34  1  0.20378401  0.26435808  0.93269244  1.0
  S2-  S34  1  0.21923822  0.50200006  0.28749339  1.0
  S2-  S34  1  0.23855468  0.52601005  0.61825521  1.0
  S2-  S34  1  0.20701675  0.51260753  0.94320581  1.0
  S2-  S34  1  0.22152289  0.76130966  0.27658551  1.0
  S2-  S34  1  0.19001936  0.75025259  0.58962288  1.0
  S2-  S34  1  0.21301568  0.75574239  0.92634801  1.0
  S2-  S34  1  0.55973815  0.00904413  0.27156231  1.0
  S2-  S34  1  0.53913782  0.00473105  0.59284504  1.0
  S2-  S34  1  0.55726034  0.00260955  0.93569640  1.0
  S2-  S34  1  0.57128813  0.25503089  0.27752985  1.0
  S2-  S34  1  0.55645143  0.25922951  0.60665630  1.0
  S2-  S34  1  0.54398806  0.25742482  0.93012230  1.0
  S2-  S34  1  0.54304249  0.50338094  0.27399368  1.0
  S2-  S34  1  0.51963034  0.51033561  0.60214429  1.0
  S2-  S34  1  0.55478200  0.51388017  0.93600139  1.0
  S2-  S34  1  0.54073793  0.74600207  0.25957228  1.0
  S2-  S34  1  0.55267062  0.74846348  0.59979122  1.0
  S2-  S34  1  0.53354938  0.75647410  0.92799936  1.0
  S2-  S34  1  0.85998891  0.00971566  0.26632019  1.0
  S2-  S34  1  0.89301690  0.01237962  0.61455592  1.0
  S2-  S34  1  0.88750973  0.01547243  0.93112578  1.0
  S2-  S34  1  0.89620639  0.26019432  0.27288644  1.0
  S2-  S34  1  0.88113319  0.25093170  0.58951533  1.0
  S2-  S34  1  0.90626347  0.25609753  0.93578559  1.0
  S2-  S34  1  0.85272057  0.49753328  0.26032041  1.0
  S2-  S34  1  0.87305015  0.50720931  0.60122687  1.0
  S2-  S34  1  0.91834170  0.50498965  0.95063637  1.0
  S2-  S34  1  0.90991494  0.76211342  0.27152661  1.0
  S2-  S34  1  0.85856585  0.76031533  0.60816053  1.0
  S2-  S34  1  0.90284536  0.75100202  0.93288297  1.0
  S2-  S35  1  0.24587289  0.20728922  0.01853184  1.0
  S2-  S35  1  0.24928167  0.20604479  0.35280493  1.0
  S2-  S35  1  0.27414767  0.21370391  0.68060028  1.0
  S2-  S35  1  0.28640897  0.46151551  0.03839640  1.0
  S2-  S35  1  0.25543294  0.44620202  0.32452823  1.0
  S2-  S35  1  0.28195080  0.46990331  0.68293446  1.0
  S2-  S35  1  0.30837842  0.72226771  0.02808211  1.0
  S2-  S35  1  0.27844321  0.71725546  0.36924123  1.0
  S2-  S35  1  0.27715402  0.71264676  0.69097905  1.0
  S2-  S35  1  0.27856321  0.96745035  0.00869742  1.0
  S2-  S35  1  0.27247786  0.96442417  0.35194028  1.0
  S2-  S35  1  0.28782929  0.97395158  0.69249859  1.0
  S2-  S35  1  0.61799467  0.22189767  0.02483382  1.0
  S2-  S35  1  0.58659911  0.21543734  0.33334823  1.0
  S2-  S35  1  0.56170028  0.21359303  0.66196533  1.0
  S2-  S35  1  0.57434752  0.45894185  0.00770048  1.0
  S2-  S35  1  0.60148480  0.46867956  0.35560028  1.0
  S2-  S35  1  0.59124272  0.47025518  0.67523396  1.0
  S2-  S35  1  0.59388513  0.70137598  0.01459990  1.0
  S2-  S35  1  0.59848691  0.71847976  0.35898243  1.0
  S2-  S35  1  0.58438173  0.70634046  0.67768325  1.0
  S2-  S35  1  0.63773768  0.97198118  0.01821128  1.0
  S2-  S35  1  0.60250639  0.95012795  0.34290086  1.0
  S2-  S35  1  0.58829868  0.96839524  0.67524471  1.0
  S2-  S35  1  0.93864921  0.21142563  0.01654382  1.0
  S2-  S35  1  0.96840910  0.22289841  0.35810706  1.0
  S2-  S35  1  0.91795318  0.20159260  0.67826817  1.0
  S2-  S35  1  0.96330808  0.46058134  0.02616354  1.0
  S2-  S35  1  0.90602919  0.45858523  0.35004413  1.0
  S2-  S35  1  0.93754125  0.46679979  0.68185765  1.0
  S2-  S35  1  0.90823617  0.71873970  0.00998035  1.0
  S2-  S35  1  0.94226533  0.71436166  0.33971908  1.0
  S2-  S35  1  0.94601153  0.70772563  0.68439502  1.0
  S2-  S35  1  0.93396223  0.97200415  0.03221529  1.0
  S2-  S35  1  0.91308905  0.97615392  0.34886291  1.0
  S2-  S35  1  0.96512641  0.95974990  0.68426593  1.0
  S2-  S36  1  0.02452947  0.04328265  0.24577951  1.0
  S2-  S36  1  0.02788132  0.04392506  0.56044122  1.0
  S2-  S36  1  0.02291293  0.05631377  0.88593529  1.0
  S2-  S36  1  0.02536387  0.30200600  0.22977175  1.0
  S2-  S36  1  0.04778804  0.30589663  0.57481064  1.0
  S2-  S36  1  0.04382598  0.30952423  0.89625977  1.0
  S2-  S36  1  0.02889173  0.54569821  0.22651540  1.0
  S2-  S36  1  0.00474094  0.53556759  0.55714167  1.0
  S2-  S36  1  0.03007160  0.55834020  0.89859879  1.0
  S2-  S36  1  0.03220617  0.80303445  0.23380465  1.0
  S2-  S36  1  0.02447995  0.79171766  0.58742511  1.0
  S2-  S36  1  0.04234802  0.80296981  0.89036076  1.0
  S2-  S36  1  0.36538686  0.05967427  0.24428659  1.0
  S2-  S36  1  0.36967928  0.04340800  0.55874912  1.0
  S2-  S36  1  0.34681909  0.03835134  0.89658461  1.0
  S2-  S36  1  0.37681930  0.30069773  0.22833084  1.0
  S2-  S36  1  0.36606065  0.29307880  0.55431136  1.0
  S2-  S36  1  0.39238760  0.29668927  0.90184167  1.0
  S2-  S36  1  0.37863543  0.54677102  0.23152848  1.0
  S2-  S36  1  0.34134676  0.54005195  0.54853511  1.0
  S2-  S36  1  0.37448054  0.54635913  0.88858619  1.0
  S2-  S36  1  0.37650728  0.79944138  0.22496826  1.0
  S2-  S36  1  0.36642208  0.79946541  0.55586782  1.0
  S2-  S36  1  0.37502073  0.79786014  0.88843305  1.0
  S2-  S36  1  0.70293088  0.04828165  0.22425882  1.0
  S2-  S36  1  0.68306262  0.03931945  0.55313801  1.0
  S2-  S36  1  0.69436149  0.04234517  0.88079813  1.0
  S2-  S36  1  0.68377649  0.29317501  0.23141364  1.0
  S2-  S36  1  0.71160111  0.30135090  0.55891761  1.0
  S2-  S36  1  0.68718288  0.28009273  0.89018750  1.0
  S2-  S36  1  0.70571534  0.54360332  0.22998090  1.0
  S2-  S36  1  0.66805379  0.54067189  0.56154313  1.0
  S2-  S36  1  0.70374712  0.54321048  0.90033660  1.0
  S2-  S36  1  0.69706974  0.79260803  0.22482048  1.0
  S2-  S36  1  0.68368104  0.78817572  0.56621133  1.0
  S2-  S36  1  0.68363001  0.79046778  0.87846989  1.0
  S2-  S37  1  0.24493673  0.08385393  0.30769190  1.0
  S2-  S37  1  0.30417193  0.07830641  0.63678675  1.0
  S2-  S37  1  0.27451777  0.32656155  0.31074016  1.0
  S2-  S37  1  0.28663264  0.33174442  0.63520488  1.0
  S2-  S37  1  0.29720042  0.31685507  0.95766155  1.0
  S2-  S37  1  0.30049525  0.59069664  0.30874267  1.0
  S2-  S37  1  0.27629786  0.58580520  0.64168499  1.0
  S2-  S37  1  0.29987424  0.57086234  0.97875872  1.0
  S2-  S37  1  0.25788494  0.82739893  0.30359221  1.0
  S2-  S37  1  0.29370103  0.83619608  0.62686470  1.0
  S2-  S37  1  0.62700670  0.08710302  0.30877171  1.0
  S2-  S37  1  0.60468089  0.08584984  0.63346647  1.0
  S2-  S37  1  0.59982459  0.07308136  0.96469552  1.0
  S2-  S37  1  0.61491576  0.32100095  0.95876696  1.0
  S2-  S37  1  0.60195752  0.57304970  0.30011811  1.0
  S2-  S37  1  0.62561167  0.83073869  0.30738196  1.0
  S2-  S37  1  0.64841641  0.83204192  0.98158649  1.0
  S2-  S37  1  0.94978068  0.08543566  0.30278167  1.0
  S2-  S37  1  0.95151529  0.07033393  0.63524579  1.0
  S2-  S37  1  0.94041897  0.08538368  0.97891585  1.0
  S2-  S37  1  0.95464386  0.34264660  0.64094221  1.0
  S2-  S37  1  0.92095170  0.32419680  0.95707266  1.0
  S2-  S37  1  0.95169058  0.57122100  0.96338676  1.0
  S2-  S37  1  0.95772777  0.83018280  0.30514299  1.0
  S2-  S37  1  0.95195611  0.82686196  0.95726872  1.0
  S2-  S38  1  0.26123865  0.12753761  0.23465257  1.0
  S2-  S38  1  0.26887293  0.12065303  0.57503816  1.0
  S2-  S38  1  0.22365042  0.12540278  0.90788983  1.0
  S2-  S38  1  0.28909809  0.37296819  0.22663273  1.0
  S2-  S38  1  0.28784933  0.37414197  0.56950192  1.0
  S2-  S38  1  0.24409060  0.36632801  0.90041248  1.0
  S2-  S38  1  0.27758402  0.62579480  0.23087910  1.0
  S2-  S38  1  0.24028464  0.61513858  0.55729648  1.0
  S2-  S38  1  0.23983231  0.61333149  0.89941944  1.0
  S2-  S38  1  0.24857939  0.88089777  0.23873509  1.0
  S2-  S38  1  0.27892574  0.88534202  0.56405962  1.0
  S2-  S38  1  0.27838688  0.87253891  0.92265451  1.0
  S2-  S38  1  0.58960063  0.12094311  0.23588983  1.0
  S2-  S38  1  0.59133769  0.11953327  0.55784527  1.0
  S2-  S38  1  0.61694844  0.11689171  0.90247154  1.0
  S2-  S38  1  0.62201618  0.38168418  0.23578129  1.0
  S2-  S38  1  0.59323906  0.37187004  0.55453934  1.0
  S2-  S38  1  0.60787284  0.37473139  0.91416901  1.0
  S2-  S38  1  0.59069716  0.63158114  0.24605078  1.0
  S2-  S38  1  0.58827505  0.61032107  0.55742949  1.0
  S2-  S38  1  0.62996112  0.62641776  0.91147398  1.0
  S2-  S38  1  0.59609970  0.87302287  0.21937123  1.0
  S2-  S38  1  0.61754217  0.88152234  0.56578253  1.0
  S2-  S38  1  0.59414119  0.87243391  0.90362867  1.0
  S2-  S38  1  0.92784987  0.13055481  0.23749383  1.0
  S2-  S38  1  0.89199253  0.12736784  0.57275086  1.0
  S2-  S38  1  0.91504185  0.12714612  0.91521113  1.0
  S2-  S38  1  0.93984979  0.38192638  0.23536279  1.0
  S2-  S38  1  0.93071400  0.37314563  0.56458016  1.0
  S2-  S38  1  0.92116926  0.36384433  0.89355249  1.0
  S2-  S38  1  0.94931561  0.61819470  0.22604152  1.0
  S2-  S38  1  0.93366608  0.62520543  0.57177326  1.0
  S2-  S38  1  0.93055454  0.62494898  0.89890096  1.0
  S2-  S38  1  0.91049790  0.87401461  0.23805246  1.0
  S2-  S38  1  0.93159689  0.86310364  0.56571556  1.0
  S2-  S38  1  0.92444645  0.88356047  0.90698240  1.0
  S2-  S39  1  0.15816706  0.16729607  0.23220786  1.0
  S2-  S39  1  0.17306233  0.17350280  0.57117432  1.0
  S2-  S39  1  0.13099728  0.15602316  0.89434815  1.0
  S2-  S39  1  0.14393427  0.42077111  0.23925617  1.0
  S2-  S39  1  0.16539848  0.41935600  0.55945563  1.0
  S2-  S39  1  0.10316422  0.41177900  0.90142153  1.0
  S2-  S39  1  0.17223593  0.66560632  0.22213662  1.0
  S2-  S39  1  0.13827777  0.67457920  0.56202985  1.0
  S2-  S39  1  0.15382537  0.66825740  0.90488504  1.0
  S2-  S39  1  0.17643284  0.92100478  0.23745892  1.0
  S2-  S39  1  0.17702261  0.91943791  0.56281815  1.0
  S2-  S39  1  0.15690479  0.92007647  0.89793151  1.0
  S2-  S39  1  0.46634571  0.16521264  0.22482192  1.0
  S2-  S39  1  0.46771019  0.16166096  0.56413780  1.0
  S2-  S39  1  0.48345452  0.16940954  0.89882645  1.0
  S2-  S39  1  0.48101139  0.42656331  0.23575957  1.0
  S2-  S39  1  0.49233646  0.41065900  0.56815800  1.0
  S2-  S39  1  0.46140095  0.41353057  0.89119810  1.0
  S2-  S39  1  0.46617250  0.66409506  0.23815817  1.0
  S2-  S39  1  0.47841439  0.66862590  0.56148838  1.0
  S2-  S39  1  0.49257624  0.66947381  0.89795043  1.0
  S2-  S39  1  0.45128199  0.91856877  0.23317716  1.0
  S2-  S39  1  0.45869396  0.91523132  0.56572264  1.0
  S2-  S39  1  0.44702187  0.91292594  0.89553559  1.0
  S2-  S39  1  0.83951736  0.18141448  0.25549982  1.0
  S2-  S39  1  0.80970793  0.16399969  0.57029985  1.0
  S2-  S39  1  0.79684377  0.16218733  0.89174482  1.0
  S2-  S39  1  0.80480654  0.41984933  0.22670299  1.0
  S2-  S39  1  0.81950484  0.42756089  0.57051348  1.0
  S2-  S39  1  0.84126418  0.42499827  0.90902186  1.0
  S2-  S39  1  0.80933125  0.67394459  0.23163626  1.0
  S2-  S39  1  0.81150427  0.66931168  0.56529921  1.0
  S2-  S39  1  0.78994400  0.65719768  0.89894068  1.0
  S2-  S39  1  0.81039258  0.90593553  0.22064937  1.0
  S2-  S39  1  0.81509608  0.92004462  0.55406347  1.0
  S2-  S39  1  0.81113958  0.92067783  0.89640477  1.0
  S2-  S40  1  0.05916391  0.20265575  0.30575315  1.0
  S2-  S40  1  0.03823600  0.19838668  0.62804167  1.0
  S2-  S40  1  0.02270513  0.19210542  0.96541379  1.0
  S2-  S40  1  0.03416966  0.44713717  0.28711066  1.0
  S2-  S40  1  0.04246311  0.45490885  0.62227202  1.0
  S2-  S40  1  0.06906594  0.46005073  0.95926981  1.0
  S2-  S40  1  0.04445451  0.70242417  0.29550120  1.0
  S2-  S40  1  0.08134052  0.71327330  0.65840581  1.0
  S2-  S40  1  0.01493006  0.69980714  0.97336049  1.0
  S2-  S40  1  0.03678844  0.96751906  0.30311364  1.0
  S2-  S40  1  0.05386783  0.94748842  0.62568373  1.0
  S2-  S40  1  0.08623363  0.95552474  0.96598108  1.0
  S2-  S40  1  0.39651860  0.20458203  0.30253148  1.0
  S2-  S40  1  0.37624781  0.20533253  0.62606262  1.0
  S2-  S40  1  0.36328432  0.20897926  0.95469123  1.0
  S2-  S40  1  0.39283057  0.46187592  0.29047842  1.0
  S2-  S40  1  0.39926815  0.45388025  0.62554931  1.0
  S2-  S40  1  0.42439096  0.45583212  0.96568056  1.0
  S2-  S40  1  0.38236821  0.71158302  0.29615350  1.0
  S2-  S40  1  0.40333218  0.70581958  0.64322251  1.0
  S2-  S40  1  0.36876451  0.69994563  0.95923068  1.0
  S2-  S40  1  0.38564209  0.95352320  0.31890463  1.0
  S2-  S40  1  0.42661338  0.95778630  0.64115441  1.0
  S2-  S40  1  0.38140241  0.94898839  0.96107549  1.0
  S2-  S40  1  0.74368512  0.21435154  0.31314725  1.0
  S2-  S40  1  0.69751209  0.20394930  0.61759752  1.0
  S2-  S40  1  0.74139513  0.20314602  0.96685071  1.0
  S2-  S40  1  0.74641385  0.47387756  0.31152177  1.0
  S2-  S40  1  0.71371454  0.44774120  0.64007387  1.0
  S2-  S40  1  0.72967058  0.46664426  0.97999250  1.0
  S2-  S40  1  0.70919657  0.69675480  0.29647087  1.0
  S2-  S40  1  0.71408791  0.70609238  0.64021794  1.0
  S2-  S40  1  0.69799118  0.70756166  0.97001168  1.0
  S2-  S40  1  0.73047172  0.94694221  0.30013842  1.0
  S2-  S40  1  0.74588642  0.95807445  0.63545730  1.0
  S2-  S40  1  0.73944866  0.95130714  0.95419426  1.0
  S2-  S41  1  0.04765647  0.17421127  0.03865852  1.0
  S2-  S41  1  0.06136627  0.17617304  0.37439407  1.0
  S2-  S41  1  0.04181148  0.41975658  0.03817032  1.0
  S2-  S41  1  0.03032797  0.42352047  0.35587983  1.0
  S2-  S41  1  0.06641310  0.42060452  0.69789399  1.0
  S2-  S41  1  0.07137954  0.66370314  0.03068410  1.0
  S2-  S41  1  0.04798309  0.67419409  0.37904821  1.0
  S2-  S41  1  0.03195560  0.91291162  0.01776751  1.0
  S2-  S41  1  0.04468178  0.92114044  0.36313151  1.0
  S2-  S41  1  0.08659840  0.93131931  0.71470188  1.0
  S2-  S41  1  0.42761371  0.17609658  0.04529424  1.0
  S2-  S41  1  0.39824838  0.17490173  0.36915657  1.0
  S2-  S41  1  0.36849664  0.16258954  0.69002792  1.0
  S2-  S41  1  0.39133005  0.42119282  0.35536616  1.0
  S2-  S41  1  0.37766546  0.41929960  0.69429435  1.0
  S2-  S41  1  0.39337040  0.67532798  0.36171066  1.0
  S2-  S41  1  0.40372185  0.67810247  0.70380915  1.0
  S2-  S41  1  0.39769980  0.92714103  0.02488099  1.0
  S2-  S41  1  0.72832284  0.16556842  0.02314703  1.0
  S2-  S41  1  0.70704014  0.40673726  0.02403832  1.0
  S2-  S41  1  0.72267634  0.40998616  0.36766505  1.0
  S2-  S41  1  0.70434254  0.42207073  0.69076263  1.0
  S2-  S41  1  0.72971775  0.67740659  0.03860302  1.0
  S2-  S41  1  0.71235388  0.66761779  0.36038999  1.0
  S2-  S41  1  0.72936427  0.92522368  0.03693232  1.0
  S2-  S41  1  0.69344844  0.92057134  0.35495404  1.0
  S2-  S41  1  0.72197395  0.91573207  0.69818540  1.0
