# generated using pymatgen
data_Li3PS4
_symmetry_space_group_name_H-M   'P 1'
_cell_length_a   18.63955200
_cell_length_b   24.39736200
_cell_length_c   39.55087200
_cell_angle_alpha   90.00000000
_cell_angle_beta   90.00000000
_cell_angle_gamma   90.00000000
_symmetry_Int_Tables_number   1
_chemical_formula_structural   Li3PS4
_chemical_formula_sum   'Li324 P108 S432'
_cell_volume   17985.99229967
_cell_formula_units_Z   108
loop_
 _symmetry_equiv_pos_site_id
 _symmetry_equiv_pos_as_xyz
  1  'x, y, z'
loop_
 _atom_site_type_symbol
 _atom_site_label
 _atom_site_symmetry_multiplicity
 _atom_site_fract_x
 _atom_site_fract_y
 _atom_site_fract_z
 _atom_site_occupancy
  Li  Li0  1  0.12968033  0.01057333  0.22263433  1.0
  Li  Li0  1  0.12968033  0.01057333  0.55596767  1.0
  Li  Li0  1  0.12968033  0.01057333  0.88930100  1.0
  Li  Li0  1  0.12968033  0.34390667  0.22263433  1.0
  Li  Li0  1  0.12968033  0.34390667  0.55596767  1.0
  Li  Li0  1  0.12968033  0.34390667  0.88930100  1.0
  Li  Li0  1  0.12968033  0.67724000  0.22263433  1.0
  Li  Li0  1  0.12968033  0.67724000  0.55596767  1.0
  Li  Li0  1  0.12968033  0.67724000  0.88930100  1.0
  Li  Li0  1  0.46301367  0.01057333  0.22263433  1.0
  Li  Li0  1  0.46301367  0.01057333  0.55596767  1.0
  Li  Li0  1  0.46301367  0.01057333  0.88930100  1.0
  Li  Li0  1  0.46301367  0.34390667  0.22263433  1.0
  Li  Li0  1  0.46301367  0.34390667  0.55596767  1.0
  Li  Li0  1  0.46301367  0.34390667  0.88930100  1.0
  Li  Li0  1  0.46301367  0.67724000  0.22263433  1.0
  Li  Li0  1  0.46301367  0.67724000  0.55596767  1.0
  Li  Li0  1  0.46301367  0.67724000  0.88930100  1.0
  Li  Li0  1  0.79634700  0.01057333  0.22263433  1.0
  Li  Li0  1  0.79634700  0.01057333  0.55596767  1.0
  Li  Li0  1  0.79634700  0.01057333  0.88930100  1.0
  Li  Li0  1  0.79634700  0.34390667  0.22263433  1.0
  Li  Li0  1  0.79634700  0.34390667  0.55596767  1.0
  Li  Li0  1  0.79634700  0.34390667  0.88930100  1.0
  Li  Li0  1  0.79634700  0.67724000  0.22263433  1.0
  Li  Li0  1  0.79634700  0.67724000  0.55596767  1.0
  Li  Li0  1  0.79634700  0.67724000  0.88930100  1.0
  Li  Li1  1  0.20365300  0.32276000  0.11069900  1.0
  Li  Li1  1  0.20365300  0.32276000  0.44403233  1.0
  Li  Li1  1  0.20365300  0.32276000  0.77736567  1.0
  Li  Li1  1  0.20365300  0.65609333  0.11069900  1.0
  Li  Li1  1  0.20365300  0.65609333  0.44403233  1.0
  Li  Li1  1  0.20365300  0.65609333  0.77736567  1.0
  Li  Li1  1  0.20365300  0.98942667  0.11069900  1.0
  Li  Li1  1  0.20365300  0.98942667  0.44403233  1.0
  Li  Li1  1  0.20365300  0.98942667  0.77736567  1.0
  Li  Li1  1  0.53698633  0.32276000  0.11069900  1.0
  Li  Li1  1  0.53698633  0.32276000  0.44403233  1.0
  Li  Li1  1  0.53698633  0.32276000  0.77736567  1.0
  Li  Li1  1  0.53698633  0.65609333  0.11069900  1.0
  Li  Li1  1  0.53698633  0.65609333  0.44403233  1.0
  Li  Li1  1  0.53698633  0.65609333  0.77736567  1.0
  Li  Li1  1  0.53698633  0.98942667  0.11069900  1.0
  Li  Li1  1  0.53698633  0.98942667  0.44403233  1.0
  Li  Li1  1  0.53698633  0.98942667  0.77736567  1.0
  Li  Li1  1  0.87031967  0.32276000  0.11069900  1.0
  Li  Li1  1  0.87031967  0.32276000  0.44403233  1.0
  Li  Li1  1  0.87031967  0.32276000  0.77736567  1.0
  Li  Li1  1  0.87031967  0.65609333  0.11069900  1.0
  Li  Li1  1  0.87031967  0.65609333  0.44403233  1.0
  Li  Li1  1  0.87031967  0.65609333  0.77736567  1.0
  Li  Li1  1  0.87031967  0.98942667  0.11069900  1.0
  Li  Li1  1  0.87031967  0.98942667  0.44403233  1.0
  Li  Li1  1  0.87031967  0.98942667  0.77736567  1.0
  Li  Li2  1  0.29634700  0.32276000  0.27736567  1.0
  Li  Li2  1  0.29634700  0.32276000  0.61069900  1.0
  Li  Li2  1  0.29634700  0.32276000  0.94403233  1.0
  Li  Li2  1  0.29634700  0.65609333  0.27736567  1.0
  Li  Li2  1  0.29634700  0.65609333  0.61069900  1.0
  Li  Li2  1  0.29634700  0.65609333  0.94403233  1.0
  Li  Li2  1  0.29634700  0.98942667  0.27736567  1.0
  Li  Li2  1  0.29634700  0.98942667  0.61069900  1.0
  Li  Li2  1  0.29634700  0.98942667  0.94403233  1.0
  Li  Li2  1  0.62968033  0.32276000  0.27736567  1.0
  Li  Li2  1  0.62968033  0.32276000  0.61069900  1.0
  Li  Li2  1  0.62968033  0.32276000  0.94403233  1.0
  Li  Li2  1  0.62968033  0.65609333  0.27736567  1.0
  Li  Li2  1  0.62968033  0.65609333  0.61069900  1.0
  Li  Li2  1  0.62968033  0.65609333  0.94403233  1.0
  Li  Li2  1  0.62968033  0.98942667  0.27736567  1.0
  Li  Li2  1  0.62968033  0.98942667  0.61069900  1.0
  Li  Li2  1  0.62968033  0.98942667  0.94403233  1.0
  Li  Li2  1  0.96301367  0.32276000  0.27736567  1.0
  Li  Li2  1  0.96301367  0.32276000  0.61069900  1.0
  Li  Li2  1  0.96301367  0.32276000  0.94403233  1.0
  Li  Li2  1  0.96301367  0.65609333  0.27736567  1.0
  Li  Li2  1  0.96301367  0.65609333  0.61069900  1.0
  Li  Li2  1  0.96301367  0.65609333  0.94403233  1.0
  Li  Li2  1  0.96301367  0.98942667  0.27736567  1.0
  Li  Li2  1  0.96301367  0.98942667  0.61069900  1.0
  Li  Li2  1  0.96301367  0.98942667  0.94403233  1.0
  Li  Li3  1  0.03698633  0.01057333  0.05596767  1.0
  Li  Li3  1  0.03698633  0.01057333  0.38930100  1.0
  Li  Li3  1  0.03698633  0.01057333  0.72263433  1.0
  Li  Li3  1  0.03698633  0.34390667  0.05596767  1.0
  Li  Li3  1  0.03698633  0.34390667  0.38930100  1.0
  Li  Li3  1  0.03698633  0.34390667  0.72263433  1.0
  Li  Li3  1  0.03698633  0.67724000  0.05596767  1.0
  Li  Li3  1  0.03698633  0.67724000  0.38930100  1.0
  Li  Li3  1  0.03698633  0.67724000  0.72263433  1.0
  Li  Li3  1  0.37031967  0.01057333  0.05596767  1.0
  Li  Li3  1  0.37031967  0.01057333  0.38930100  1.0
  Li  Li3  1  0.37031967  0.01057333  0.72263433  1.0
  Li  Li3  1  0.37031967  0.34390667  0.05596767  1.0
  Li  Li3  1  0.37031967  0.34390667  0.38930100  1.0
  Li  Li3  1  0.37031967  0.34390667  0.72263433  1.0
  Li  Li3  1  0.37031967  0.67724000  0.05596767  1.0
  Li  Li3  1  0.37031967  0.67724000  0.38930100  1.0
  Li  Li3  1  0.37031967  0.67724000  0.72263433  1.0
  Li  Li3  1  0.70365300  0.01057333  0.05596767  1.0
  Li  Li3  1  0.70365300  0.01057333  0.38930100  1.0
  Li  Li3  1  0.70365300  0.01057333  0.72263433  1.0
  Li  Li3  1  0.70365300  0.34390667  0.05596767  1.0
  Li  Li3  1  0.70365300  0.34390667  0.38930100  1.0
  Li  Li3  1  0.70365300  0.34390667  0.72263433  1.0
  Li  Li3  1  0.70365300  0.67724000  0.05596767  1.0
  Li  Li3  1  0.70365300  0.67724000  0.38930100  1.0
  Li  Li3  1  0.70365300  0.67724000  0.72263433  1.0
  Li  Li4  1  0.20365300  0.17724000  0.11069900  1.0
  Li  Li4  1  0.20365300  0.17724000  0.44403233  1.0
  Li  Li4  1  0.20365300  0.17724000  0.77736567  1.0
  Li  Li4  1  0.20365300  0.51057333  0.11069900  1.0
  Li  Li4  1  0.20365300  0.51057333  0.44403233  1.0
  Li  Li4  1  0.20365300  0.51057333  0.77736567  1.0
  Li  Li4  1  0.20365300  0.84390667  0.11069900  1.0
  Li  Li4  1  0.20365300  0.84390667  0.44403233  1.0
  Li  Li4  1  0.20365300  0.84390667  0.77736567  1.0
  Li  Li4  1  0.53698633  0.17724000  0.11069900  1.0
  Li  Li4  1  0.53698633  0.17724000  0.44403233  1.0
  Li  Li4  1  0.53698633  0.17724000  0.77736567  1.0
  Li  Li4  1  0.53698633  0.51057333  0.11069900  1.0
  Li  Li4  1  0.53698633  0.51057333  0.44403233  1.0
  Li  Li4  1  0.53698633  0.51057333  0.77736567  1.0
  Li  Li4  1  0.53698633  0.84390667  0.11069900  1.0
  Li  Li4  1  0.53698633  0.84390667  0.44403233  1.0
  Li  Li4  1  0.53698633  0.84390667  0.77736567  1.0
  Li  Li4  1  0.87031967  0.17724000  0.11069900  1.0
  Li  Li4  1  0.87031967  0.17724000  0.44403233  1.0
  Li  Li4  1  0.87031967  0.17724000  0.77736567  1.0
  Li  Li4  1  0.87031967  0.51057333  0.11069900  1.0
  Li  Li4  1  0.87031967  0.51057333  0.44403233  1.0
  Li  Li4  1  0.87031967  0.51057333  0.77736567  1.0
  Li  Li4  1  0.87031967  0.84390667  0.11069900  1.0
  Li  Li4  1  0.87031967  0.84390667  0.44403233  1.0
  Li  Li4  1  0.87031967  0.84390667  0.77736567  1.0
  Li  Li5  1  0.12968033  0.15609333  0.22263433  1.0
  Li  Li5  1  0.12968033  0.15609333  0.55596767  1.0
  Li  Li5  1  0.12968033  0.15609333  0.88930100  1.0
  Li  Li5  1  0.12968033  0.48942667  0.22263433  1.0
  Li  Li5  1  0.12968033  0.48942667  0.55596767  1.0
  Li  Li5  1  0.12968033  0.48942667  0.88930100  1.0
  Li  Li5  1  0.12968033  0.82276000  0.22263433  1.0
  Li  Li5  1  0.12968033  0.82276000  0.55596767  1.0
  Li  Li5  1  0.12968033  0.82276000  0.88930100  1.0
  Li  Li5  1  0.46301367  0.15609333  0.22263433  1.0
  Li  Li5  1  0.46301367  0.15609333  0.55596767  1.0
  Li  Li5  1  0.46301367  0.15609333  0.88930100  1.0
  Li  Li5  1  0.46301367  0.48942667  0.22263433  1.0
  Li  Li5  1  0.46301367  0.48942667  0.55596767  1.0
  Li  Li5  1  0.46301367  0.48942667  0.88930100  1.0
  Li  Li5  1  0.46301367  0.82276000  0.22263433  1.0
  Li  Li5  1  0.46301367  0.82276000  0.55596767  1.0
  Li  Li5  1  0.46301367  0.82276000  0.88930100  1.0
  Li  Li5  1  0.79634700  0.15609333  0.22263433  1.0
  Li  Li5  1  0.79634700  0.15609333  0.55596767  1.0
  Li  Li5  1  0.79634700  0.15609333  0.88930100  1.0
  Li  Li5  1  0.79634700  0.48942667  0.22263433  1.0
  Li  Li5  1  0.79634700  0.48942667  0.55596767  1.0
  Li  Li5  1  0.79634700  0.48942667  0.88930100  1.0
  Li  Li5  1  0.79634700  0.82276000  0.22263433  1.0
  Li  Li5  1  0.79634700  0.82276000  0.55596767  1.0
  Li  Li5  1  0.79634700  0.82276000  0.88930100  1.0
  Li  Li6  1  0.03698633  0.15609333  0.05596767  1.0
  Li  Li6  1  0.03698633  0.15609333  0.38930100  1.0
  Li  Li6  1  0.03698633  0.15609333  0.72263433  1.0
  Li  Li6  1  0.03698633  0.48942667  0.05596767  1.0
  Li  Li6  1  0.03698633  0.48942667  0.38930100  1.0
  Li  Li6  1  0.03698633  0.48942667  0.72263433  1.0
  Li  Li6  1  0.03698633  0.82276000  0.05596767  1.0
  Li  Li6  1  0.03698633  0.82276000  0.38930100  1.0
  Li  Li6  1  0.03698633  0.82276000  0.72263433  1.0
  Li  Li6  1  0.37031967  0.15609333  0.05596767  1.0
  Li  Li6  1  0.37031967  0.15609333  0.38930100  1.0
  Li  Li6  1  0.37031967  0.15609333  0.72263433  1.0
  Li  Li6  1  0.37031967  0.48942667  0.05596767  1.0
  Li  Li6  1  0.37031967  0.48942667  0.38930100  1.0
  Li  Li6  1  0.37031967  0.48942667  0.72263433  1.0
  Li  Li6  1  0.37031967  0.82276000  0.05596767  1.0
  Li  Li6  1  0.37031967  0.82276000  0.38930100  1.0
  Li  Li6  1  0.37031967  0.82276000  0.72263433  1.0
  Li  Li6  1  0.70365300  0.15609333  0.05596767  1.0
  Li  Li6  1  0.70365300  0.15609333  0.38930100  1.0
  Li  Li6  1  0.70365300  0.15609333  0.72263433  1.0
  Li  Li6  1  0.70365300  0.48942667  0.05596767  1.0
  Li  Li6  1  0.70365300  0.48942667  0.38930100  1.0
  Li  Li6  1  0.70365300  0.48942667  0.72263433  1.0
  Li  Li6  1  0.70365300  0.82276000  0.05596767  1.0
  Li  Li6  1  0.70365300  0.82276000  0.38930100  1.0
  Li  Li6  1  0.70365300  0.82276000  0.72263433  1.0
  Li  Li7  1  0.29634700  0.17724000  0.27736567  1.0
  Li  Li7  1  0.29634700  0.17724000  0.61069900  1.0
  Li  Li7  1  0.29634700  0.17724000  0.94403233  1.0
  Li  Li7  1  0.29634700  0.51057333  0.27736567  1.0
  Li  Li7  1  0.29634700  0.51057333  0.61069900  1.0
  Li  Li7  1  0.29634700  0.51057333  0.94403233  1.0
  Li  Li7  1  0.29634700  0.84390667  0.27736567  1.0
  Li  Li7  1  0.29634700  0.84390667  0.61069900  1.0
  Li  Li7  1  0.29634700  0.84390667  0.94403233  1.0
  Li  Li7  1  0.62968033  0.17724000  0.27736567  1.0
  Li  Li7  1  0.62968033  0.17724000  0.61069900  1.0
  Li  Li7  1  0.62968033  0.17724000  0.94403233  1.0
  Li  Li7  1  0.62968033  0.51057333  0.27736567  1.0
  Li  Li7  1  0.62968033  0.51057333  0.61069900  1.0
  Li  Li7  1  0.62968033  0.51057333  0.94403233  1.0
  Li  Li7  1  0.62968033  0.84390667  0.27736567  1.0
  Li  Li7  1  0.62968033  0.84390667  0.61069900  1.0
  Li  Li7  1  0.62968033  0.84390667  0.94403233  1.0
  Li  Li7  1  0.96301367  0.17724000  0.27736567  1.0
  Li  Li7  1  0.96301367  0.17724000  0.61069900  1.0
  Li  Li7  1  0.96301367  0.17724000  0.94403233  1.0
  Li  Li7  1  0.96301367  0.51057333  0.27736567  1.0
  Li  Li7  1  0.96301367  0.51057333  0.61069900  1.0
  Li  Li7  1  0.96301367  0.51057333  0.94403233  1.0
  Li  Li7  1  0.96301367  0.84390667  0.27736567  1.0
  Li  Li7  1  0.96301367  0.84390667  0.61069900  1.0
  Li  Li7  1  0.96301367  0.84390667  0.94403233  1.0
  Li  Li8  1  0.16666667  0.00000000  0.00000000  1.0
  Li  Li8  1  0.16666667  0.00000000  0.33333333  1.0
  Li  Li8  1  0.16666667  0.00000000  0.66666667  1.0
  Li  Li8  1  0.16666667  0.33333333  0.00000000  1.0
  Li  Li8  1  0.16666667  0.33333333  0.33333333  1.0
  Li  Li8  1  0.16666667  0.33333333  0.66666667  1.0
  Li  Li8  1  0.16666667  0.66666667  0.00000000  1.0
  Li  Li8  1  0.16666667  0.66666667  0.33333333  1.0
  Li  Li8  1  0.16666667  0.66666667  0.66666667  1.0
  Li  Li8  1  0.50000000  0.00000000  0.00000000  1.0
  Li  Li8  1  0.50000000  0.00000000  0.33333333  1.0
  Li  Li8  1  0.50000000  0.00000000  0.66666667  1.0
  Li  Li8  1  0.50000000  0.33333333  0.00000000  1.0
  Li  Li8  1  0.50000000  0.33333333  0.33333333  1.0
  Li  Li8  1  0.50000000  0.33333333  0.66666667  1.0
  Li  Li8  1  0.50000000  0.66666667  0.00000000  1.0
  Li  Li8  1  0.50000000  0.66666667  0.33333333  1.0
  Li  Li8  1  0.50000000  0.66666667  0.66666667  1.0
  Li  Li8  1  0.83333333  0.00000000  0.00000000  1.0
  Li  Li8  1  0.83333333  0.00000000  0.33333333  1.0
  Li  Li8  1  0.83333333  0.00000000  0.66666667  1.0
  Li  Li8  1  0.83333333  0.33333333  0.00000000  1.0
  Li  Li8  1  0.83333333  0.33333333  0.33333333  1.0
  Li  Li8  1  0.83333333  0.33333333  0.66666667  1.0
  Li  Li8  1  0.83333333  0.66666667  0.00000000  1.0
  Li  Li8  1  0.83333333  0.66666667  0.33333333  1.0
  Li  Li8  1  0.83333333  0.66666667  0.66666667  1.0
  Li  Li9  1  0.00000000  0.00000000  0.16666667  1.0
  Li  Li9  1  0.00000000  0.00000000  0.50000000  1.0
  Li  Li9  1  0.00000000  0.00000000  0.83333333  1.0
  Li  Li9  1  0.00000000  0.33333333  0.16666667  1.0
  Li  Li9  1  0.00000000  0.33333333  0.50000000  1.0
  Li  Li9  1  0.00000000  0.33333333  0.83333333  1.0
  Li  Li9  1  0.00000000  0.66666667  0.16666667  1.0
  Li  Li9  1  0.00000000  0.66666667  0.50000000  1.0
  Li  Li9  1  0.00000000  0.66666667  0.83333333  1.0
  Li  Li9  1  0.33333333  0.00000000  0.16666667  1.0
  Li  Li9  1  0.33333333  0.00000000  0.50000000  1.0
  Li  Li9  1  0.33333333  0.00000000  0.83333333  1.0
  Li  Li9  1  0.33333333  0.33333333  0.16666667  1.0
  Li  Li9  1  0.33333333  0.33333333  0.50000000  1.0
  Li  Li9  1  0.33333333  0.33333333  0.83333333  1.0
  Li  Li9  1  0.33333333  0.66666667  0.16666667  1.0
  Li  Li9  1  0.33333333  0.66666667  0.50000000  1.0
  Li  Li9  1  0.33333333  0.66666667  0.83333333  1.0
  Li  Li9  1  0.66666667  0.00000000  0.16666667  1.0
  Li  Li9  1  0.66666667  0.00000000  0.50000000  1.0
  Li  Li9  1  0.66666667  0.00000000  0.83333333  1.0
  Li  Li9  1  0.66666667  0.33333333  0.16666667  1.0
  Li  Li9  1  0.66666667  0.33333333  0.50000000  1.0
  Li  Li9  1  0.66666667  0.33333333  0.83333333  1.0
  Li  Li9  1  0.66666667  0.66666667  0.16666667  1.0
  Li  Li9  1  0.66666667  0.66666667  0.50000000  1.0
  Li  Li9  1  0.66666667  0.66666667  0.83333333  1.0
  Li  Li10  1  0.16666667  0.16666667  0.00000000  1.0
  Li  Li10  1  0.16666667  0.16666667  0.33333333  1.0
  Li  Li10  1  0.16666667  0.16666667  0.66666667  1.0
  Li  Li10  1  0.16666667  0.50000000  0.00000000  1.0
  Li  Li10  1  0.16666667  0.50000000  0.33333333  1.0
  Li  Li10  1  0.16666667  0.50000000  0.66666667  1.0
  Li  Li10  1  0.16666667  0.83333333  0.00000000  1.0
  Li  Li10  1  0.16666667  0.83333333  0.33333333  1.0
  Li  Li10  1  0.16666667  0.83333333  0.66666667  1.0
  Li  Li10  1  0.50000000  0.16666667  0.00000000  1.0
  Li  Li10  1  0.50000000  0.16666667  0.33333333  1.0
  Li  Li10  1  0.50000000  0.16666667  0.66666667  1.0
  Li  Li10  1  0.50000000  0.50000000  0.00000000  1.0
  Li  Li10  1  0.50000000  0.50000000  0.33333333  1.0
  Li  Li10  1  0.50000000  0.50000000  0.66666667  1.0
  Li  Li10  1  0.50000000  0.83333333  0.00000000  1.0
  Li  Li10  1  0.50000000  0.83333333  0.33333333  1.0
  Li  Li10  1  0.50000000  0.83333333  0.66666667  1.0
  Li  Li10  1  0.83333333  0.16666667  0.00000000  1.0
  Li  Li10  1  0.83333333  0.16666667  0.33333333  1.0
  Li  Li10  1  0.83333333  0.16666667  0.66666667  1.0
  Li  Li10  1  0.83333333  0.50000000  0.00000000  1.0
  Li  Li10  1  0.83333333  0.50000000  0.33333333  1.0
  Li  Li10  1  0.83333333  0.50000000  0.66666667  1.0
  Li  Li10  1  0.83333333  0.83333333  0.00000000  1.0
  Li  Li10  1  0.83333333  0.83333333  0.33333333  1.0
  Li  Li10  1  0.83333333  0.83333333  0.66666667  1.0
  Li  Li11  1  0.00000000  0.16666667  0.16666667  1.0
  Li  Li11  1  0.00000000  0.16666667  0.50000000  1.0
  Li  Li11  1  0.00000000  0.16666667  0.83333333  1.0
  Li  Li11  1  0.00000000  0.50000000  0.16666667  1.0
  Li  Li11  1  0.00000000  0.50000000  0.50000000  1.0
  Li  Li11  1  0.00000000  0.50000000  0.83333333  1.0
  Li  Li11  1  0.00000000  0.83333333  0.16666667  1.0
  Li  Li11  1  0.00000000  0.83333333  0.50000000  1.0
  Li  Li11  1  0.00000000  0.83333333  0.83333333  1.0
  Li  Li11  1  0.33333333  0.16666667  0.16666667  1.0
  Li  Li11  1  0.33333333  0.16666667  0.50000000  1.0
  Li  Li11  1  0.33333333  0.16666667  0.83333333  1.0
  Li  Li11  1  0.33333333  0.50000000  0.16666667  1.0
  Li  Li11  1  0.33333333  0.50000000  0.50000000  1.0
  Li  Li11  1  0.33333333  0.50000000  0.83333333  1.0
  Li  Li11  1  0.33333333  0.83333333  0.16666667  1.0
  Li  Li11  1  0.33333333  0.83333333  0.50000000  1.0
  Li  Li11  1  0.33333333  0.83333333  0.83333333  1.0
  Li  Li11  1  0.66666667  0.16666667  0.16666667  1.0
  Li  Li11  1  0.66666667  0.16666667  0.50000000  1.0
  Li  Li11  1  0.66666667  0.16666667  0.83333333  1.0
  Li  Li11  1  0.66666667  0.50000000  0.16666667  1.0
  Li  Li11  1  0.66666667  0.50000000  0.50000000  1.0
  Li  Li11  1  0.66666667  0.50000000  0.83333333  1.0
  Li  Li11  1  0.66666667  0.83333333  0.16666667  1.0
  Li  Li11  1  0.66666667  0.83333333  0.50000000  1.0
  Li  Li11  1  0.66666667  0.83333333  0.83333333  1.0
  P  P12  1  0.05126667  0.08333333  0.30358567  1.0
  P  P12  1  0.05126667  0.08333333  0.63691900  1.0
  P  P12  1  0.05126667  0.08333333  0.97025233  1.0
  P  P12  1  0.05126667  0.41666667  0.30358567  1.0
  P  P12  1  0.05126667  0.41666667  0.63691900  1.0
  P  P12  1  0.05126667  0.41666667  0.97025233  1.0
  P  P12  1  0.05126667  0.75000000  0.30358567  1.0
  P  P12  1  0.05126667  0.75000000  0.63691900  1.0
  P  P12  1  0.05126667  0.75000000  0.97025233  1.0
  P  P12  1  0.38460000  0.08333333  0.30358567  1.0
  P  P12  1  0.38460000  0.08333333  0.63691900  1.0
  P  P12  1  0.38460000  0.08333333  0.97025233  1.0
  P  P12  1  0.38460000  0.41666667  0.30358567  1.0
  P  P12  1  0.38460000  0.41666667  0.63691900  1.0
  P  P12  1  0.38460000  0.41666667  0.97025233  1.0
  P  P12  1  0.38460000  0.75000000  0.30358567  1.0
  P  P12  1  0.38460000  0.75000000  0.63691900  1.0
  P  P12  1  0.38460000  0.75000000  0.97025233  1.0
  P  P12  1  0.71793333  0.08333333  0.30358567  1.0
  P  P12  1  0.71793333  0.08333333  0.63691900  1.0
  P  P12  1  0.71793333  0.08333333  0.97025233  1.0
  P  P12  1  0.71793333  0.41666667  0.30358567  1.0
  P  P12  1  0.71793333  0.41666667  0.63691900  1.0
  P  P12  1  0.71793333  0.41666667  0.97025233  1.0
  P  P12  1  0.71793333  0.75000000  0.30358567  1.0
  P  P12  1  0.71793333  0.75000000  0.63691900  1.0
  P  P12  1  0.71793333  0.75000000  0.97025233  1.0
  P  P13  1  0.28206667  0.25000000  0.02974767  1.0
  P  P13  1  0.28206667  0.25000000  0.36308100  1.0
  P  P13  1  0.28206667  0.25000000  0.69641433  1.0
  P  P13  1  0.28206667  0.58333333  0.02974767  1.0
  P  P13  1  0.28206667  0.58333333  0.36308100  1.0
  P  P13  1  0.28206667  0.58333333  0.69641433  1.0
  P  P13  1  0.28206667  0.91666667  0.02974767  1.0
  P  P13  1  0.28206667  0.91666667  0.36308100  1.0
  P  P13  1  0.28206667  0.91666667  0.69641433  1.0
  P  P13  1  0.61540000  0.25000000  0.02974767  1.0
  P  P13  1  0.61540000  0.25000000  0.36308100  1.0
  P  P13  1  0.61540000  0.25000000  0.69641433  1.0
  P  P13  1  0.61540000  0.58333333  0.02974767  1.0
  P  P13  1  0.61540000  0.58333333  0.36308100  1.0
  P  P13  1  0.61540000  0.58333333  0.69641433  1.0
  P  P13  1  0.61540000  0.91666667  0.02974767  1.0
  P  P13  1  0.61540000  0.91666667  0.36308100  1.0
  P  P13  1  0.61540000  0.91666667  0.69641433  1.0
  P  P13  1  0.94873333  0.25000000  0.02974767  1.0
  P  P13  1  0.94873333  0.25000000  0.36308100  1.0
  P  P13  1  0.94873333  0.25000000  0.69641433  1.0
  P  P13  1  0.94873333  0.58333333  0.02974767  1.0
  P  P13  1  0.94873333  0.58333333  0.36308100  1.0
  P  P13  1  0.94873333  0.58333333  0.69641433  1.0
  P  P13  1  0.94873333  0.91666667  0.02974767  1.0
  P  P13  1  0.94873333  0.91666667  0.36308100  1.0
  P  P13  1  0.94873333  0.91666667  0.69641433  1.0
  P  P14  1  0.21793333  0.25000000  0.19641433  1.0
  P  P14  1  0.21793333  0.25000000  0.52974767  1.0
  P  P14  1  0.21793333  0.25000000  0.86308100  1.0
  P  P14  1  0.21793333  0.58333333  0.19641433  1.0
  P  P14  1  0.21793333  0.58333333  0.52974767  1.0
  P  P14  1  0.21793333  0.58333333  0.86308100  1.0
  P  P14  1  0.21793333  0.91666667  0.19641433  1.0
  P  P14  1  0.21793333  0.91666667  0.52974767  1.0
  P  P14  1  0.21793333  0.91666667  0.86308100  1.0
  P  P14  1  0.55126667  0.25000000  0.19641433  1.0
  P  P14  1  0.55126667  0.25000000  0.52974767  1.0
  P  P14  1  0.55126667  0.25000000  0.86308100  1.0
  P  P14  1  0.55126667  0.58333333  0.19641433  1.0
  P  P14  1  0.55126667  0.58333333  0.52974767  1.0
  P  P14  1  0.55126667  0.58333333  0.86308100  1.0
  P  P14  1  0.55126667  0.91666667  0.19641433  1.0
  P  P14  1  0.55126667  0.91666667  0.52974767  1.0
  P  P14  1  0.55126667  0.91666667  0.86308100  1.0
  P  P14  1  0.88460000  0.25000000  0.19641433  1.0
  P  P14  1  0.88460000  0.25000000  0.52974767  1.0
  P  P14  1  0.88460000  0.25000000  0.86308100  1.0
  P  P14  1  0.88460000  0.58333333  0.19641433  1.0
  P  P14  1  0.88460000  0.58333333  0.52974767  1.0
  P  P14  1  0.88460000  0.58333333  0.86308100  1.0
  P  P14  1  0.88460000  0.91666667  0.19641433  1.0
  P  P14  1  0.88460000  0.91666667  0.52974767  1.0
  P  P14  1  0.88460000  0.91666667  0.86308100  1.0
  P  P15  1  0.11540000  0.08333333  0.13691900  1.0
  P  P15  1  0.11540000  0.08333333  0.47025233  1.0
  P  P15  1  0.11540000  0.08333333  0.80358567  1.0
  P  P15  1  0.11540000  0.41666667  0.13691900  1.0
  P  P15  1  0.11540000  0.41666667  0.47025233  1.0
  P  P15  1  0.11540000  0.41666667  0.80358567  1.0
  P  P15  1  0.11540000  0.75000000  0.13691900  1.0
  P  P15  1  0.11540000  0.75000000  0.47025233  1.0
  P  P15  1  0.11540000  0.75000000  0.80358567  1.0
  P  P15  1  0.44873333  0.08333333  0.13691900  1.0
  P  P15  1  0.44873333  0.08333333  0.47025233  1.0
  P  P15  1  0.44873333  0.08333333  0.80358567  1.0
  P  P15  1  0.44873333  0.41666667  0.13691900  1.0
  P  P15  1  0.44873333  0.41666667  0.47025233  1.0
  P  P15  1  0.44873333  0.41666667  0.80358567  1.0
  P  P15  1  0.44873333  0.75000000  0.13691900  1.0
  P  P15  1  0.44873333  0.75000000  0.47025233  1.0
  P  P15  1  0.44873333  0.75000000  0.80358567  1.0
  P  P15  1  0.78206667  0.08333333  0.13691900  1.0
  P  P15  1  0.78206667  0.08333333  0.47025233  1.0
  P  P15  1  0.78206667  0.08333333  0.80358567  1.0
  P  P15  1  0.78206667  0.41666667  0.13691900  1.0
  P  P15  1  0.78206667  0.41666667  0.47025233  1.0
  P  P15  1  0.78206667  0.41666667  0.80358567  1.0
  P  P15  1  0.78206667  0.75000000  0.13691900  1.0
  P  P15  1  0.78206667  0.75000000  0.47025233  1.0
  P  P15  1  0.78206667  0.75000000  0.80358567  1.0
  S  S16  1  0.27527933  0.08333333  0.29954533  1.0
  S  S16  1  0.27527933  0.08333333  0.63287867  1.0
  S  S16  1  0.27527933  0.08333333  0.96621200  1.0
  S  S16  1  0.27527933  0.41666667  0.29954533  1.0
  S  S16  1  0.27527933  0.41666667  0.63287867  1.0
  S  S16  1  0.27527933  0.41666667  0.96621200  1.0
  S  S16  1  0.27527933  0.75000000  0.29954533  1.0
  S  S16  1  0.27527933  0.75000000  0.63287867  1.0
  S  S16  1  0.27527933  0.75000000  0.96621200  1.0
  S  S16  1  0.60861267  0.08333333  0.29954533  1.0
  S  S16  1  0.60861267  0.08333333  0.63287867  1.0
  S  S16  1  0.60861267  0.08333333  0.96621200  1.0
  S  S16  1  0.60861267  0.41666667  0.29954533  1.0
  S  S16  1  0.60861267  0.41666667  0.63287867  1.0
  S  S16  1  0.60861267  0.41666667  0.96621200  1.0
  S  S16  1  0.60861267  0.75000000  0.29954533  1.0
  S  S16  1  0.60861267  0.75000000  0.63287867  1.0
  S  S16  1  0.60861267  0.75000000  0.96621200  1.0
  S  S16  1  0.94194600  0.08333333  0.29954533  1.0
  S  S16  1  0.94194600  0.08333333  0.63287867  1.0
  S  S16  1  0.94194600  0.08333333  0.96621200  1.0
  S  S16  1  0.94194600  0.41666667  0.29954533  1.0
  S  S16  1  0.94194600  0.41666667  0.63287867  1.0
  S  S16  1  0.94194600  0.41666667  0.96621200  1.0
  S  S16  1  0.94194600  0.75000000  0.29954533  1.0
  S  S16  1  0.94194600  0.75000000  0.63287867  1.0
  S  S16  1  0.94194600  0.75000000  0.96621200  1.0
  S  S17  1  0.05805400  0.25000000  0.03378800  1.0
  S  S17  1  0.05805400  0.25000000  0.36712133  1.0
  S  S17  1  0.05805400  0.25000000  0.70045467  1.0
  S  S17  1  0.05805400  0.58333333  0.03378800  1.0
  S  S17  1  0.05805400  0.58333333  0.36712133  1.0
  S  S17  1  0.05805400  0.58333333  0.70045467  1.0
  S  S17  1  0.05805400  0.91666667  0.03378800  1.0
  S  S17  1  0.05805400  0.91666667  0.36712133  1.0
  S  S17  1  0.05805400  0.91666667  0.70045467  1.0
  S  S17  1  0.39138733  0.25000000  0.03378800  1.0
  S  S17  1  0.39138733  0.25000000  0.36712133  1.0
  S  S17  1  0.39138733  0.25000000  0.70045467  1.0
  S  S17  1  0.39138733  0.58333333  0.03378800  1.0
  S  S17  1  0.39138733  0.58333333  0.36712133  1.0
  S  S17  1  0.39138733  0.58333333  0.70045467  1.0
  S  S17  1  0.39138733  0.91666667  0.03378800  1.0
  S  S17  1  0.39138733  0.91666667  0.36712133  1.0
  S  S17  1  0.39138733  0.91666667  0.70045467  1.0
  S  S17  1  0.72472067  0.25000000  0.03378800  1.0
  S  S17  1  0.72472067  0.25000000  0.36712133  1.0
  S  S17  1  0.72472067  0.25000000  0.70045467  1.0
  S  S17  1  0.72472067  0.58333333  0.03378800  1.0
  S  S17  1  0.72472067  0.58333333  0.36712133  1.0
  S  S17  1  0.72472067  0.58333333  0.70045467  1.0
  S  S17  1  0.72472067  0.91666667  0.03378800  1.0
  S  S17  1  0.72472067  0.91666667  0.36712133  1.0
  S  S17  1  0.72472067  0.91666667  0.70045467  1.0
  S  S18  1  0.10861267  0.25000000  0.20045467  1.0
  S  S18  1  0.10861267  0.25000000  0.53378800  1.0
  S  S18  1  0.10861267  0.25000000  0.86712133  1.0
  S  S18  1  0.10861267  0.58333333  0.20045467  1.0
  S  S18  1  0.10861267  0.58333333  0.53378800  1.0
  S  S18  1  0.10861267  0.58333333  0.86712133  1.0
  S  S18  1  0.10861267  0.91666667  0.20045467  1.0
  S  S18  1  0.10861267  0.91666667  0.53378800  1.0
  S  S18  1  0.10861267  0.91666667  0.86712133  1.0
  S  S18  1  0.44194600  0.25000000  0.20045467  1.0
  S  S18  1  0.44194600  0.25000000  0.53378800  1.0
  S  S18  1  0.44194600  0.25000000  0.86712133  1.0
  S  S18  1  0.44194600  0.58333333  0.20045467  1.0
  S  S18  1  0.44194600  0.58333333  0.53378800  1.0
  S  S18  1  0.44194600  0.58333333  0.86712133  1.0
  S  S18  1  0.44194600  0.91666667  0.20045467  1.0
  S  S18  1  0.44194600  0.91666667  0.53378800  1.0
  S  S18  1  0.44194600  0.91666667  0.86712133  1.0
  S  S18  1  0.77527933  0.25000000  0.20045467  1.0
  S  S18  1  0.77527933  0.25000000  0.53378800  1.0
  S  S18  1  0.77527933  0.25000000  0.86712133  1.0
  S  S18  1  0.77527933  0.58333333  0.20045467  1.0
  S  S18  1  0.77527933  0.58333333  0.53378800  1.0
  S  S18  1  0.77527933  0.58333333  0.86712133  1.0
  S  S18  1  0.77527933  0.91666667  0.20045467  1.0
  S  S18  1  0.77527933  0.91666667  0.53378800  1.0
  S  S18  1  0.77527933  0.91666667  0.86712133  1.0
  S  S19  1  0.22472067  0.08333333  0.13287867  1.0
  S  S19  1  0.22472067  0.08333333  0.46621200  1.0
  S  S19  1  0.22472067  0.08333333  0.79954533  1.0
  S  S19  1  0.22472067  0.41666667  0.13287867  1.0
  S  S19  1  0.22472067  0.41666667  0.46621200  1.0
  S  S19  1  0.22472067  0.41666667  0.79954533  1.0
  S  S19  1  0.22472067  0.75000000  0.13287867  1.0
  S  S19  1  0.22472067  0.75000000  0.46621200  1.0
  S  S19  1  0.22472067  0.75000000  0.79954533  1.0
  S  S19  1  0.55805400  0.08333333  0.13287867  1.0
  S  S19  1  0.55805400  0.08333333  0.46621200  1.0
  S  S19  1  0.55805400  0.08333333  0.79954533  1.0
  S  S19  1  0.55805400  0.41666667  0.13287867  1.0
  S  S19  1  0.55805400  0.41666667  0.46621200  1.0
  S  S19  1  0.55805400  0.41666667  0.79954533  1.0
  S  S19  1  0.55805400  0.75000000  0.13287867  1.0
  S  S19  1  0.55805400  0.75000000  0.46621200  1.0
  S  S19  1  0.55805400  0.75000000  0.79954533  1.0
  S  S19  1  0.89138733  0.08333333  0.13287867  1.0
  S  S19  1  0.89138733  0.08333333  0.46621200  1.0
  S  S19  1  0.89138733  0.08333333  0.79954533  1.0
  S  S19  1  0.89138733  0.41666667  0.13287867  1.0
  S  S19  1  0.89138733  0.41666667  0.46621200  1.0
  S  S19  1  0.89138733  0.41666667  0.79954533  1.0
  S  S19  1  0.89138733  0.75000000  0.13287867  1.0
  S  S19  1  0.89138733  0.75000000  0.46621200  1.0
  S  S19  1  0.89138733  0.75000000  0.79954533  1.0
  S  S20  1  0.09093567  0.08333333  0.01982433  1.0
  S  S20  1  0.09093567  0.08333333  0.35315767  1.0
  S  S20  1  0.09093567  0.08333333  0.68649100  1.0
  S  S20  1  0.09093567  0.41666667  0.01982433  1.0
  S  S20  1  0.09093567  0.41666667  0.35315767  1.0
  S  S20  1  0.09093567  0.41666667  0.68649100  1.0
  S  S20  1  0.09093567  0.75000000  0.01982433  1.0
  S  S20  1  0.09093567  0.75000000  0.35315767  1.0
  S  S20  1  0.09093567  0.75000000  0.68649100  1.0
  S  S20  1  0.42426900  0.08333333  0.01982433  1.0
  S  S20  1  0.42426900  0.08333333  0.35315767  1.0
  S  S20  1  0.42426900  0.08333333  0.68649100  1.0
  S  S20  1  0.42426900  0.41666667  0.01982433  1.0
  S  S20  1  0.42426900  0.41666667  0.35315767  1.0
  S  S20  1  0.42426900  0.41666667  0.68649100  1.0
  S  S20  1  0.42426900  0.75000000  0.01982433  1.0
  S  S20  1  0.42426900  0.75000000  0.35315767  1.0
  S  S20  1  0.42426900  0.75000000  0.68649100  1.0
  S  S20  1  0.75760233  0.08333333  0.01982433  1.0
  S  S20  1  0.75760233  0.08333333  0.35315767  1.0
  S  S20  1  0.75760233  0.08333333  0.68649100  1.0
  S  S20  1  0.75760233  0.41666667  0.01982433  1.0
  S  S20  1  0.75760233  0.41666667  0.35315767  1.0
  S  S20  1  0.75760233  0.41666667  0.68649100  1.0
  S  S20  1  0.75760233  0.75000000  0.01982433  1.0
  S  S20  1  0.75760233  0.75000000  0.35315767  1.0
  S  S20  1  0.75760233  0.75000000  0.68649100  1.0
  S  S21  1  0.24239767  0.25000000  0.31350900  1.0
  S  S21  1  0.24239767  0.25000000  0.64684233  1.0
  S  S21  1  0.24239767  0.25000000  0.98017567  1.0
  S  S21  1  0.24239767  0.58333333  0.31350900  1.0
  S  S21  1  0.24239767  0.58333333  0.64684233  1.0
  S  S21  1  0.24239767  0.58333333  0.98017567  1.0
  S  S21  1  0.24239767  0.91666667  0.31350900  1.0
  S  S21  1  0.24239767  0.91666667  0.64684233  1.0
  S  S21  1  0.24239767  0.91666667  0.98017567  1.0
  S  S21  1  0.57573100  0.25000000  0.31350900  1.0
  S  S21  1  0.57573100  0.25000000  0.64684233  1.0
  S  S21  1  0.57573100  0.25000000  0.98017567  1.0
  S  S21  1  0.57573100  0.58333333  0.31350900  1.0
  S  S21  1  0.57573100  0.58333333  0.64684233  1.0
  S  S21  1  0.57573100  0.58333333  0.98017567  1.0
  S  S21  1  0.57573100  0.91666667  0.31350900  1.0
  S  S21  1  0.57573100  0.91666667  0.64684233  1.0
  S  S21  1  0.57573100  0.91666667  0.98017567  1.0
  S  S21  1  0.90906433  0.25000000  0.31350900  1.0
  S  S21  1  0.90906433  0.25000000  0.64684233  1.0
  S  S21  1  0.90906433  0.25000000  0.98017567  1.0
  S  S21  1  0.90906433  0.58333333  0.31350900  1.0
  S  S21  1  0.90906433  0.58333333  0.64684233  1.0
  S  S21  1  0.90906433  0.58333333  0.98017567  1.0
  S  S21  1  0.90906433  0.91666667  0.31350900  1.0
  S  S21  1  0.90906433  0.91666667  0.64684233  1.0
  S  S21  1  0.90906433  0.91666667  0.98017567  1.0
  S  S22  1  0.25760233  0.25000000  0.14684233  1.0
  S  S22  1  0.25760233  0.25000000  0.48017567  1.0
  S  S22  1  0.25760233  0.25000000  0.81350900  1.0
  S  S22  1  0.25760233  0.58333333  0.14684233  1.0
  S  S22  1  0.25760233  0.58333333  0.48017567  1.0
  S  S22  1  0.25760233  0.58333333  0.81350900  1.0
  S  S22  1  0.25760233  0.91666667  0.14684233  1.0
  S  S22  1  0.25760233  0.91666667  0.48017567  1.0
  S  S22  1  0.25760233  0.91666667  0.81350900  1.0
  S  S22  1  0.59093567  0.25000000  0.14684233  1.0
  S  S22  1  0.59093567  0.25000000  0.48017567  1.0
  S  S22  1  0.59093567  0.25000000  0.81350900  1.0
  S  S22  1  0.59093567  0.58333333  0.14684233  1.0
  S  S22  1  0.59093567  0.58333333  0.48017567  1.0
  S  S22  1  0.59093567  0.58333333  0.81350900  1.0
  S  S22  1  0.59093567  0.91666667  0.14684233  1.0
  S  S22  1  0.59093567  0.91666667  0.48017567  1.0
  S  S22  1  0.59093567  0.91666667  0.81350900  1.0
  S  S22  1  0.92426900  0.25000000  0.14684233  1.0
  S  S22  1  0.92426900  0.25000000  0.48017567  1.0
  S  S22  1  0.92426900  0.25000000  0.81350900  1.0
  S  S22  1  0.92426900  0.58333333  0.14684233  1.0
  S  S22  1  0.92426900  0.58333333  0.48017567  1.0
  S  S22  1  0.92426900  0.58333333  0.81350900  1.0
  S  S22  1  0.92426900  0.91666667  0.14684233  1.0
  S  S22  1  0.92426900  0.91666667  0.48017567  1.0
  S  S22  1  0.92426900  0.91666667  0.81350900  1.0
  S  S23  1  0.07573100  0.08333333  0.18649100  1.0
  S  S23  1  0.07573100  0.08333333  0.51982433  1.0
  S  S23  1  0.07573100  0.08333333  0.85315767  1.0
  S  S23  1  0.07573100  0.41666667  0.18649100  1.0
  S  S23  1  0.07573100  0.41666667  0.51982433  1.0
  S  S23  1  0.07573100  0.41666667  0.85315767  1.0
  S  S23  1  0.07573100  0.75000000  0.18649100  1.0
  S  S23  1  0.07573100  0.75000000  0.51982433  1.0
  S  S23  1  0.07573100  0.75000000  0.85315767  1.0
  S  S23  1  0.40906433  0.08333333  0.18649100  1.0
  S  S23  1  0.40906433  0.08333333  0.51982433  1.0
  S  S23  1  0.40906433  0.08333333  0.85315767  1.0
  S  S23  1  0.40906433  0.41666667  0.18649100  1.0
  S  S23  1  0.40906433  0.41666667  0.51982433  1.0
  S  S23  1  0.40906433  0.41666667  0.85315767  1.0
  S  S23  1  0.40906433  0.75000000  0.18649100  1.0
  S  S23  1  0.40906433  0.75000000  0.51982433  1.0
  S  S23  1  0.40906433  0.75000000  0.85315767  1.0
  S  S23  1  0.74239767  0.08333333  0.18649100  1.0
  S  S23  1  0.74239767  0.08333333  0.51982433  1.0
  S  S23  1  0.74239767  0.08333333  0.85315767  1.0
  S  S23  1  0.74239767  0.41666667  0.18649100  1.0
  S  S23  1  0.74239767  0.41666667  0.51982433  1.0
  S  S23  1  0.74239767  0.41666667  0.85315767  1.0
  S  S23  1  0.74239767  0.75000000  0.18649100  1.0
  S  S23  1  0.74239767  0.75000000  0.51982433  1.0
  S  S23  1  0.74239767  0.75000000  0.85315767  1.0
  S  S24  1  0.09108400  0.01253400  0.28252067  1.0
  S  S24  1  0.09108400  0.01253400  0.61585400  1.0
  S  S24  1  0.09108400  0.01253400  0.94918733  1.0
  S  S24  1  0.09108400  0.34586733  0.28252067  1.0
  S  S24  1  0.09108400  0.34586733  0.61585400  1.0
  S  S24  1  0.09108400  0.34586733  0.94918733  1.0
  S  S24  1  0.09108400  0.67920067  0.28252067  1.0
  S  S24  1  0.09108400  0.67920067  0.61585400  1.0
  S  S24  1  0.09108400  0.67920067  0.94918733  1.0
  S  S24  1  0.42441733  0.01253400  0.28252067  1.0
  S  S24  1  0.42441733  0.01253400  0.61585400  1.0
  S  S24  1  0.42441733  0.01253400  0.94918733  1.0
  S  S24  1  0.42441733  0.34586733  0.28252067  1.0
  S  S24  1  0.42441733  0.34586733  0.61585400  1.0
  S  S24  1  0.42441733  0.34586733  0.94918733  1.0
  S  S24  1  0.42441733  0.67920067  0.28252067  1.0
  S  S24  1  0.42441733  0.67920067  0.61585400  1.0
  S  S24  1  0.42441733  0.67920067  0.94918733  1.0
  S  S24  1  0.75775067  0.01253400  0.28252067  1.0
  S  S24  1  0.75775067  0.01253400  0.61585400  1.0
  S  S24  1  0.75775067  0.01253400  0.94918733  1.0
  S  S24  1  0.75775067  0.34586733  0.28252067  1.0
  S  S24  1  0.75775067  0.34586733  0.61585400  1.0
  S  S24  1  0.75775067  0.34586733  0.94918733  1.0
  S  S24  1  0.75775067  0.67920067  0.28252067  1.0
  S  S24  1  0.75775067  0.67920067  0.61585400  1.0
  S  S24  1  0.75775067  0.67920067  0.94918733  1.0
  S  S25  1  0.24224933  0.32079933  0.05081267  1.0
  S  S25  1  0.24224933  0.32079933  0.38414600  1.0
  S  S25  1  0.24224933  0.32079933  0.71747933  1.0
  S  S25  1  0.24224933  0.65413267  0.05081267  1.0
  S  S25  1  0.24224933  0.65413267  0.38414600  1.0
  S  S25  1  0.24224933  0.65413267  0.71747933  1.0
  S  S25  1  0.24224933  0.98746600  0.05081267  1.0
  S  S25  1  0.24224933  0.98746600  0.38414600  1.0
  S  S25  1  0.24224933  0.98746600  0.71747933  1.0
  S  S25  1  0.57558267  0.32079933  0.05081267  1.0
  S  S25  1  0.57558267  0.32079933  0.38414600  1.0
  S  S25  1  0.57558267  0.32079933  0.71747933  1.0
  S  S25  1  0.57558267  0.65413267  0.05081267  1.0
  S  S25  1  0.57558267  0.65413267  0.38414600  1.0
  S  S25  1  0.57558267  0.65413267  0.71747933  1.0
  S  S25  1  0.57558267  0.98746600  0.05081267  1.0
  S  S25  1  0.57558267  0.98746600  0.38414600  1.0
  S  S25  1  0.57558267  0.98746600  0.71747933  1.0
  S  S25  1  0.90891600  0.32079933  0.05081267  1.0
  S  S25  1  0.90891600  0.32079933  0.38414600  1.0
  S  S25  1  0.90891600  0.32079933  0.71747933  1.0
  S  S25  1  0.90891600  0.65413267  0.05081267  1.0
  S  S25  1  0.90891600  0.65413267  0.38414600  1.0
  S  S25  1  0.90891600  0.65413267  0.71747933  1.0
  S  S25  1  0.90891600  0.98746600  0.05081267  1.0
  S  S25  1  0.90891600  0.98746600  0.38414600  1.0
  S  S25  1  0.90891600  0.98746600  0.71747933  1.0
  S  S26  1  0.25775067  0.32079933  0.21747933  1.0
  S  S26  1  0.25775067  0.32079933  0.55081267  1.0
  S  S26  1  0.25775067  0.32079933  0.88414600  1.0
  S  S26  1  0.25775067  0.65413267  0.21747933  1.0
  S  S26  1  0.25775067  0.65413267  0.55081267  1.0
  S  S26  1  0.25775067  0.65413267  0.88414600  1.0
  S  S26  1  0.25775067  0.98746600  0.21747933  1.0
  S  S26  1  0.25775067  0.98746600  0.55081267  1.0
  S  S26  1  0.25775067  0.98746600  0.88414600  1.0
  S  S26  1  0.59108400  0.32079933  0.21747933  1.0
  S  S26  1  0.59108400  0.32079933  0.55081267  1.0
  S  S26  1  0.59108400  0.32079933  0.88414600  1.0
  S  S26  1  0.59108400  0.65413267  0.21747933  1.0
  S  S26  1  0.59108400  0.65413267  0.55081267  1.0
  S  S26  1  0.59108400  0.65413267  0.88414600  1.0
  S  S26  1  0.59108400  0.98746600  0.21747933  1.0
  S  S26  1  0.59108400  0.98746600  0.55081267  1.0
  S  S26  1  0.59108400  0.98746600  0.88414600  1.0
  S  S26  1  0.92441733  0.32079933  0.21747933  1.0
  S  S26  1  0.92441733  0.32079933  0.55081267  1.0
  S  S26  1  0.92441733  0.32079933  0.88414600  1.0
  S  S26  1  0.92441733  0.65413267  0.21747933  1.0
  S  S26  1  0.92441733  0.65413267  0.55081267  1.0
  S  S26  1  0.92441733  0.65413267  0.88414600  1.0
  S  S26  1  0.92441733  0.98746600  0.21747933  1.0
  S  S26  1  0.92441733  0.98746600  0.55081267  1.0
  S  S26  1  0.92441733  0.98746600  0.88414600  1.0
  S  S27  1  0.07558267  0.01253400  0.11585400  1.0
  S  S27  1  0.07558267  0.01253400  0.44918733  1.0
  S  S27  1  0.07558267  0.01253400  0.78252067  1.0
  S  S27  1  0.07558267  0.34586733  0.11585400  1.0
  S  S27  1  0.07558267  0.34586733  0.44918733  1.0
  S  S27  1  0.07558267  0.34586733  0.78252067  1.0
  S  S27  1  0.07558267  0.67920067  0.11585400  1.0
  S  S27  1  0.07558267  0.67920067  0.44918733  1.0
  S  S27  1  0.07558267  0.67920067  0.78252067  1.0
  S  S27  1  0.40891600  0.01253400  0.11585400  1.0
  S  S27  1  0.40891600  0.01253400  0.44918733  1.0
  S  S27  1  0.40891600  0.01253400  0.78252067  1.0
  S  S27  1  0.40891600  0.34586733  0.11585400  1.0
  S  S27  1  0.40891600  0.34586733  0.44918733  1.0
  S  S27  1  0.40891600  0.34586733  0.78252067  1.0
  S  S27  1  0.40891600  0.67920067  0.11585400  1.0
  S  S27  1  0.40891600  0.67920067  0.44918733  1.0
  S  S27  1  0.40891600  0.67920067  0.78252067  1.0
  S  S27  1  0.74224933  0.01253400  0.11585400  1.0
  S  S27  1  0.74224933  0.01253400  0.44918733  1.0
  S  S27  1  0.74224933  0.01253400  0.78252067  1.0
  S  S27  1  0.74224933  0.34586733  0.11585400  1.0
  S  S27  1  0.74224933  0.34586733  0.44918733  1.0
  S  S27  1  0.74224933  0.34586733  0.78252067  1.0
  S  S27  1  0.74224933  0.67920067  0.11585400  1.0
  S  S27  1  0.74224933  0.67920067  0.44918733  1.0
  S  S27  1  0.74224933  0.67920067  0.78252067  1.0
  S  S28  1  0.24224933  0.17920067  0.05081267  1.0
  S  S28  1  0.24224933  0.17920067  0.38414600  1.0
  S  S28  1  0.24224933  0.17920067  0.71747933  1.0
  S  S28  1  0.24224933  0.51253400  0.05081267  1.0
  S  S28  1  0.24224933  0.51253400  0.38414600  1.0
  S  S28  1  0.24224933  0.51253400  0.71747933  1.0
  S  S28  1  0.24224933  0.84586733  0.05081267  1.0
  S  S28  1  0.24224933  0.84586733  0.38414600  1.0
  S  S28  1  0.24224933  0.84586733  0.71747933  1.0
  S  S28  1  0.57558267  0.17920067  0.05081267  1.0
  S  S28  1  0.57558267  0.17920067  0.38414600  1.0
  S  S28  1  0.57558267  0.17920067  0.71747933  1.0
  S  S28  1  0.57558267  0.51253400  0.05081267  1.0
  S  S28  1  0.57558267  0.51253400  0.38414600  1.0
  S  S28  1  0.57558267  0.51253400  0.71747933  1.0
  S  S28  1  0.57558267  0.84586733  0.05081267  1.0
  S  S28  1  0.57558267  0.84586733  0.38414600  1.0
  S  S28  1  0.57558267  0.84586733  0.71747933  1.0
  S  S28  1  0.90891600  0.17920067  0.05081267  1.0
  S  S28  1  0.90891600  0.17920067  0.38414600  1.0
  S  S28  1  0.90891600  0.17920067  0.71747933  1.0
  S  S28  1  0.90891600  0.51253400  0.05081267  1.0
  S  S28  1  0.90891600  0.51253400  0.38414600  1.0
  S  S28  1  0.90891600  0.51253400  0.71747933  1.0
  S  S28  1  0.90891600  0.84586733  0.05081267  1.0
  S  S28  1  0.90891600  0.84586733  0.38414600  1.0
  S  S28  1  0.90891600  0.84586733  0.71747933  1.0
  S  S29  1  0.09108400  0.15413267  0.28252067  1.0
  S  S29  1  0.09108400  0.15413267  0.61585400  1.0
  S  S29  1  0.09108400  0.15413267  0.94918733  1.0
  S  S29  1  0.09108400  0.48746600  0.28252067  1.0
  S  S29  1  0.09108400  0.48746600  0.61585400  1.0
  S  S29  1  0.09108400  0.48746600  0.94918733  1.0
  S  S29  1  0.09108400  0.82079933  0.28252067  1.0
  S  S29  1  0.09108400  0.82079933  0.61585400  1.0
  S  S29  1  0.09108400  0.82079933  0.94918733  1.0
  S  S29  1  0.42441733  0.15413267  0.28252067  1.0
  S  S29  1  0.42441733  0.15413267  0.61585400  1.0
  S  S29  1  0.42441733  0.15413267  0.94918733  1.0
  S  S29  1  0.42441733  0.48746600  0.28252067  1.0
  S  S29  1  0.42441733  0.48746600  0.61585400  1.0
  S  S29  1  0.42441733  0.48746600  0.94918733  1.0
  S  S29  1  0.42441733  0.82079933  0.28252067  1.0
  S  S29  1  0.42441733  0.82079933  0.61585400  1.0
  S  S29  1  0.42441733  0.82079933  0.94918733  1.0
  S  S29  1  0.75775067  0.15413267  0.28252067  1.0
  S  S29  1  0.75775067  0.15413267  0.61585400  1.0
  S  S29  1  0.75775067  0.15413267  0.94918733  1.0
  S  S29  1  0.75775067  0.48746600  0.28252067  1.0
  S  S29  1  0.75775067  0.48746600  0.61585400  1.0
  S  S29  1  0.75775067  0.48746600  0.94918733  1.0
  S  S29  1  0.75775067  0.82079933  0.28252067  1.0
  S  S29  1  0.75775067  0.82079933  0.61585400  1.0
  S  S29  1  0.75775067  0.82079933  0.94918733  1.0
  S  S30  1  0.07558267  0.15413267  0.11585400  1.0
  S  S30  1  0.07558267  0.15413267  0.44918733  1.0
  S  S30  1  0.07558267  0.15413267  0.78252067  1.0
  S  S30  1  0.07558267  0.48746600  0.11585400  1.0
  S  S30  1  0.07558267  0.48746600  0.44918733  1.0
  S  S30  1  0.07558267  0.48746600  0.78252067  1.0
  S  S30  1  0.07558267  0.82079933  0.11585400  1.0
  S  S30  1  0.07558267  0.82079933  0.44918733  1.0
  S  S30  1  0.07558267  0.82079933  0.78252067  1.0
  S  S30  1  0.40891600  0.15413267  0.11585400  1.0
  S  S30  1  0.40891600  0.15413267  0.44918733  1.0
  S  S30  1  0.40891600  0.15413267  0.78252067  1.0
  S  S30  1  0.40891600  0.48746600  0.11585400  1.0
  S  S30  1  0.40891600  0.48746600  0.44918733  1.0
  S  S30  1  0.40891600  0.48746600  0.78252067  1.0
  S  S30  1  0.40891600  0.82079933  0.11585400  1.0
  S  S30  1  0.40891600  0.82079933  0.44918733  1.0
  S  S30  1  0.40891600  0.82079933  0.78252067  1.0
  S  S30  1  0.74224933  0.15413267  0.11585400  1.0
  S  S30  1  0.74224933  0.15413267  0.44918733  1.0
  S  S30  1  0.74224933  0.15413267  0.78252067  1.0
  S  S30  1  0.74224933  0.48746600  0.11585400  1.0
  S  S30  1  0.74224933  0.48746600  0.44918733  1.0
  S  S30  1  0.74224933  0.48746600  0.78252067  1.0
  S  S30  1  0.74224933  0.82079933  0.11585400  1.0
  S  S30  1  0.74224933  0.82079933  0.44918733  1.0
  S  S30  1  0.74224933  0.82079933  0.78252067  1.0
  S  S31  1  0.25775067  0.17920067  0.21747933  1.0
  S  S31  1  0.25775067  0.17920067  0.55081267  1.0
  S  S31  1  0.25775067  0.17920067  0.88414600  1.0
  S  S31  1  0.25775067  0.51253400  0.21747933  1.0
  S  S31  1  0.25775067  0.51253400  0.55081267  1.0
  S  S31  1  0.25775067  0.51253400  0.88414600  1.0
  S  S31  1  0.25775067  0.84586733  0.21747933  1.0
  S  S31  1  0.25775067  0.84586733  0.55081267  1.0
  S  S31  1  0.25775067  0.84586733  0.88414600  1.0
  S  S31  1  0.59108400  0.17920067  0.21747933  1.0
  S  S31  1  0.59108400  0.17920067  0.55081267  1.0
  S  S31  1  0.59108400  0.17920067  0.88414600  1.0
  S  S31  1  0.59108400  0.51253400  0.21747933  1.0
  S  S31  1  0.59108400  0.51253400  0.55081267  1.0
  S  S31  1  0.59108400  0.51253400  0.88414600  1.0
  S  S31  1  0.59108400  0.84586733  0.21747933  1.0
  S  S31  1  0.59108400  0.84586733  0.55081267  1.0
  S  S31  1  0.59108400  0.84586733  0.88414600  1.0
  S  S31  1  0.92441733  0.17920067  0.21747933  1.0
  S  S31  1  0.92441733  0.17920067  0.55081267  1.0
  S  S31  1  0.92441733  0.17920067  0.88414600  1.0
  S  S31  1  0.92441733  0.51253400  0.21747933  1.0
  S  S31  1  0.92441733  0.51253400  0.55081267  1.0
  S  S31  1  0.92441733  0.51253400  0.88414600  1.0
  S  S31  1  0.92441733  0.84586733  0.21747933  1.0
  S  S31  1  0.92441733  0.84586733  0.55081267  1.0
  S  S31  1  0.92441733  0.84586733  0.88414600  1.0
