# generated using pymatgen
data_Fe54O77
_symmetry_space_group_name_H-M   'P 1'
_cell_length_a   15.43399530
_cell_length_b   15.86515305
_cell_length_c   22.53425235
_cell_angle_alpha   89.69688019
_cell_angle_beta   89.83613702
_cell_angle_gamma   89.87615236
_symmetry_Int_Tables_number   1
_chemical_formula_structural   Fe54O77
_chemical_formula_sum   'Fe216 O308'
_cell_volume   5517.68532473
_cell_formula_units_Z   4
loop_
 _symmetry_equiv_pos_site_id
 _symmetry_equiv_pos_as_xyz
  1  'x, y, z'
loop_
 _atom_type_symbol
 _atom_type_oxidation_number
  Fe3+  3.0
  O2-  -2.0
loop_
 _atom_site_type_symbol
 _atom_site_label
 _atom_site_symmetry_multiplicity
 _atom_site_fract_x
 _atom_site_fract_y
 _atom_site_fract_z
 _atom_site_occupancy
  Fe3+  Fe0  1  0.11179748  0.00121698  0.04855653  1.0
  Fe3+  Fe0  1  0.05544249  0.97675324  0.35749106  1.0
  Fe3+  Fe0  1  0.05685335  0.97984581  0.71212053  1.0
  Fe3+  Fe0  1  0.12950668  0.32619142  0.00724820  1.0
  Fe3+  Fe0  1  0.10046738  0.30680378  0.34973782  1.0
  Fe3+  Fe0  1  0.09620329  0.33883907  0.69176617  1.0
  Fe3+  Fe0  1  0.08515956  0.66601795  0.07088283  1.0
  Fe3+  Fe0  1  0.06590137  0.65331055  0.36268314  1.0
  Fe3+  Fe0  1  0.07263469  0.69135824  0.66858745  1.0
  Fe3+  Fe0  1  0.42777006  0.99602629  0.05112534  1.0
  Fe3+  Fe0  1  0.41543503  0.02275146  0.36364642  1.0
  Fe3+  Fe0  1  0.42795831  0.05162213  0.69067336  1.0
  Fe3+  Fe0  1  0.41394756  0.33074805  0.06563468  1.0
  Fe3+  Fe0  1  0.40549300  0.32453370  0.36046624  1.0
  Fe3+  Fe0  1  0.41322543  0.32300044  0.69751472  1.0
  Fe3+  Fe0  1  0.42077928  0.67342891  0.05207331  1.0
  Fe3+  Fe0  1  0.40843335  0.67118136  0.37548729  1.0
  Fe3+  Fe0  1  0.47492096  0.65648261  0.73807937  1.0
  Fe3+  Fe0  1  0.71934469  0.01544668  0.03132124  1.0
  Fe3+  Fe0  1  0.72886380  0.02729981  0.38126476  1.0
  Fe3+  Fe0  1  0.73767601  0.95688305  0.69673834  1.0
  Fe3+  Fe0  1  0.75363964  0.34305273  0.05071819  1.0
  Fe3+  Fe0  1  0.80012045  0.35344198  0.38058167  1.0
  Fe3+  Fe0  1  0.75380719  0.37256751  0.71328892  1.0
  Fe3+  Fe0  1  0.76934588  0.72194938  0.04112843  1.0
  Fe3+  Fe0  1  0.74298467  0.68759258  0.39078139  1.0
  Fe3+  Fe0  1  0.76296843  0.70308211  0.69197391  1.0
  Fe3+  Fe1  1  0.06125025  0.14267069  0.27274120  1.0
  Fe3+  Fe1  1  0.08660055  0.14557048  0.65034825  1.0
  Fe3+  Fe1  1  0.05016694  0.19561678  0.94431232  1.0
  Fe3+  Fe1  1  0.05167274  0.46895415  0.32991991  1.0
  Fe3+  Fe1  1  0.08264966  0.50309460  0.62516449  1.0
  Fe3+  Fe1  1  0.08141158  0.47699130  0.96276244  1.0
  Fe3+  Fe1  1  0.09644314  0.86539428  0.26168723  1.0
  Fe3+  Fe1  1  0.12543613  0.83639075  0.62181697  1.0
  Fe3+  Fe1  1  0.06946463  0.84939342  0.96580412  1.0
  Fe3+  Fe1  1  0.37727289  0.16556670  0.31550028  1.0
  Fe3+  Fe1  1  0.43931942  0.14060776  0.60466994  1.0
  Fe3+  Fe1  1  0.40842210  0.23845507  0.93409609  1.0
  Fe3+  Fe1  1  0.39518843  0.49963051  0.29293859  1.0
  Fe3+  Fe1  1  0.41175000  0.54079509  0.61315057  1.0
  Fe3+  Fe1  1  0.41666999  0.49483667  0.94750677  1.0
  Fe3+  Fe1  1  0.37969907  0.82986961  0.32738483  1.0
  Fe3+  Fe1  1  0.42753187  0.82535032  0.62991587  1.0
  Fe3+  Fe1  1  0.41028810  0.85291835  0.95273979  1.0
  Fe3+  Fe1  1  0.71530895  0.11653458  0.29676271  1.0
  Fe3+  Fe1  1  0.77786134  0.16240036  0.62276667  1.0
  Fe3+  Fe1  1  0.76225569  0.16110762  0.97643443  1.0
  Fe3+  Fe1  1  0.78481666  0.46568306  0.25363558  1.0
  Fe3+  Fe1  1  0.74133062  0.46404545  0.64335768  1.0
  Fe3+  Fe1  1  0.73171651  0.44245218  0.95182988  1.0
  Fe3+  Fe1  1  0.71162883  0.86317182  0.30344158  1.0
  Fe3+  Fe1  1  0.76713756  0.83659412  0.64330685  1.0
  Fe3+  Fe1  1  0.77978743  0.80947079  0.93659737  1.0
  Fe3+  Fe2  1  0.22955327  0.32194479  0.25000457  1.0
  Fe3+  Fe2  1  0.28122212  0.27526317  0.63956393  1.0
  Fe3+  Fe2  1  0.24712893  0.33027576  0.95374785  1.0
  Fe3+  Fe2  1  0.25715624  0.64452160  0.28563693  1.0
  Fe3+  Fe2  1  0.22816218  0.69488960  0.63522501  1.0
  Fe3+  Fe2  1  0.25697889  0.63434355  0.95804576  1.0
  Fe3+  Fe2  1  0.22594205  0.97736868  0.27410969  1.0
  Fe3+  Fe2  1  0.29272850  0.97066854  0.61326668  1.0
  Fe3+  Fe2  1  0.21718783  0.97030801  0.95349790  1.0
  Fe3+  Fe2  1  0.58358754  0.30681522  0.26712732  1.0
  Fe3+  Fe2  1  0.54554307  0.34022186  0.62664321  1.0
  Fe3+  Fe2  1  0.60160791  0.34275867  0.96471865  1.0
  Fe3+  Fe2  1  0.55290078  0.66119899  0.32036498  1.0
  Fe3+  Fe2  1  0.57321909  0.66500690  0.62855586  1.0
  Fe3+  Fe2  1  0.62043951  0.63933005  0.98261297  1.0
  Fe3+  Fe2  1  0.57515349  0.97225090  0.29751058  1.0
  Fe3+  Fe2  1  0.59360309  0.03794754  0.63428501  1.0
  Fe3+  Fe2  1  0.58975438  0.02999573  0.97265263  1.0
  Fe3+  Fe2  1  0.90139427  0.35727361  0.28225306  1.0
  Fe3+  Fe2  1  0.90138805  0.30169200  0.61230316  1.0
  Fe3+  Fe2  1  0.92681651  0.31658321  0.90041015  1.0
  Fe3+  Fe2  1  0.91124359  0.64336093  0.31138686  1.0
  Fe3+  Fe2  1  0.90342815  0.72044105  0.65339422  1.0
  Fe3+  Fe2  1  0.90799810  0.68540433  0.97137786  1.0
  Fe3+  Fe2  1  0.92417340  0.00998952  0.29634899  1.0
  Fe3+  Fe2  1  0.92435069  0.01051144  0.66515282  1.0
  Fe3+  Fe2  1  0.92470278  0.97831080  0.92615243  1.0
  Fe3+  Fe3  1  0.13595626  0.31690058  0.21337573  1.0
  Fe3+  Fe3  1  0.13449325  0.32927618  0.53371702  1.0
  Fe3+  Fe3  1  0.12187859  0.33515418  0.88091253  1.0
  Fe3+  Fe3  1  0.04556794  0.68727562  0.21058851  1.0
  Fe3+  Fe3  1  0.04953631  0.66910163  0.50070341  1.0
  Fe3+  Fe3  1  0.14586875  0.62909004  0.89921900  1.0
  Fe3+  Fe3  1  0.06401020  0.00432925  0.18775509  1.0
  Fe3+  Fe3  1  0.11096591  0.98427127  0.54556556  1.0
  Fe3+  Fe3  1  0.08557706  0.95577196  0.87969961  1.0
  Fe3+  Fe3  1  0.40534348  0.34989303  0.19969814  1.0
  Fe3+  Fe3  1  0.41636090  0.36596912  0.57941255  1.0
  Fe3+  Fe3  1  0.43883155  0.31629803  0.86396051  1.0
  Fe3+  Fe3  1  0.39726120  0.64110693  0.19920076  1.0
  Fe3+  Fe3  1  0.46936236  0.65189847  0.51544608  1.0
  Fe3+  Fe3  1  0.41951393  0.66136213  0.87123773  1.0
  Fe3+  Fe3  1  0.43916570  0.99194416  0.21755576  1.0
  Fe3+  Fe3  1  0.39812084  0.03510169  0.54164495  1.0
  Fe3+  Fe3  1  0.42886009  0.97042451  0.87905256  1.0
  Fe3+  Fe3  1  0.76871601  0.29404441  0.17458388  1.0
  Fe3+  Fe3  1  0.75941544  0.31121436  0.54193541  1.0
  Fe3+  Fe3  1  0.71840446  0.28419279  0.87450481  1.0
  Fe3+  Fe3  1  0.74282943  0.60365414  0.22801410  1.0
  Fe3+  Fe3  1  0.71774374  0.72175199  0.52603890  1.0
  Fe3+  Fe3  1  0.76209293  0.69839536  0.89671020  1.0
  Fe3+  Fe3  1  0.80333660  0.95180316  0.18383690  1.0
  Fe3+  Fe3  1  0.75758777  0.01137680  0.53700113  1.0
  Fe3+  Fe3  1  0.70929795  0.00272451  0.86721247  1.0
  Fe3+  Fe4  1  0.24518831  0.09910693  0.21805676  1.0
  Fe3+  Fe4  1  0.25407004  0.20180197  0.53551167  1.0
  Fe3+  Fe4  1  0.26503819  0.17751322  0.83924087  1.0
  Fe3+  Fe4  1  0.31824744  0.47901247  0.21236317  1.0
  Fe3+  Fe4  1  0.26705391  0.46933093  0.56983920  1.0
  Fe3+  Fe4  1  0.25731128  0.48449174  0.87280848  1.0
  Fe3+  Fe4  1  0.27021313  0.82347959  0.21929178  1.0
  Fe3+  Fe4  1  0.20678158  0.80434884  0.49920037  1.0
  Fe3+  Fe4  1  0.30205260  0.87322953  0.88117876  1.0
  Fe3+  Fe4  1  0.55736311  0.21679643  0.19277509  1.0
  Fe3+  Fe4  1  0.57820545  0.16056297  0.54502061  1.0
  Fe3+  Fe4  1  0.60038733  0.17378532  0.86768108  1.0
  Fe3+  Fe4  1  0.60106565  0.48510353  0.21394357  1.0
  Fe3+  Fe4  1  0.59658583  0.50910759  0.54823759  1.0
  Fe3+  Fe4  1  0.57224800  0.50143941  0.88192111  1.0
  Fe3+  Fe4  1  0.55029328  0.81629788  0.21456240  1.0
  Fe3+  Fe4  1  0.62799371  0.84400546  0.56830690  1.0
  Fe3+  Fe4  1  0.57340147  0.82951536  0.88464250  1.0
  Fe3+  Fe4  1  0.85669741  0.19463240  0.17062050  1.0
  Fe3+  Fe4  1  0.94287274  0.17385769  0.49536542  1.0
  Fe3+  Fe4  1  0.85766823  0.19265769  0.89188741  1.0
  Fe3+  Fe4  1  0.89429312  0.46763928  0.21290323  1.0
  Fe3+  Fe4  1  0.91668439  0.51645836  0.54542467  1.0
  Fe3+  Fe4  1  0.95804665  0.51433247  0.88296624  1.0
  Fe3+  Fe4  1  0.90797101  0.81248375  0.20281568  1.0
  Fe3+  Fe4  1  0.96480751  0.81296397  0.54157924  1.0
  Fe3+  Fe4  1  0.85885736  0.84024643  0.91046088  1.0
  Fe3+  Fe5  1  0.22538405  0.09079489  0.13093454  1.0
  Fe3+  Fe5  1  0.18309666  0.00103746  0.48506641  1.0
  Fe3+  Fe5  1  0.30153387  0.02886335  0.82227379  1.0
  Fe3+  Fe5  1  0.21927093  0.32693997  0.09826193  1.0
  Fe3+  Fe5  1  0.23403391  0.36330152  0.46501738  1.0
  Fe3+  Fe5  1  0.27230174  0.32047910  0.77911922  1.0
  Fe3+  Fe5  1  0.25509406  0.66223017  0.15110495  1.0
  Fe3+  Fe5  1  0.23352446  0.66493447  0.46879637  1.0
  Fe3+  Fe5  1  0.23973721  0.64628814  0.77523787  1.0
  Fe3+  Fe5  1  0.59710382  0.97650094  0.15285087  1.0
  Fe3+  Fe5  1  0.56516370  0.02629459  0.45007028  1.0
  Fe3+  Fe5  1  0.55935707  0.01696299  0.81331000  1.0
  Fe3+  Fe5  1  0.57668363  0.34244046  0.14230097  1.0
  Fe3+  Fe5  1  0.60487702  0.34312085  0.45337217  1.0
  Fe3+  Fe5  1  0.58524381  0.33927790  0.80018591  1.0
  Fe3+  Fe5  1  0.55212377  0.68441322  0.11523420  1.0
  Fe3+  Fe5  1  0.60660623  0.66046980  0.44967173  1.0
  Fe3+  Fe5  1  0.59463358  0.67778299  0.83500501  1.0
  Fe3+  Fe5  1  0.87419172  0.01352771  0.14807454  1.0
  Fe3+  Fe5  1  0.90148687  0.98780020  0.44593960  1.0
  Fe3+  Fe5  1  0.87457218  0.04478797  0.78872094  1.0
  Fe3+  Fe5  1  0.90493101  0.29053666  0.10272258  1.0
  Fe3+  Fe5  1  0.95438586  0.35173351  0.48188678  1.0
  Fe3+  Fe5  1  0.94343340  0.31886279  0.83778936  1.0
  Fe3+  Fe5  1  0.96698676  0.66321048  0.06456556  1.0
  Fe3+  Fe5  1  0.90717086  0.68343281  0.45120164  1.0
  Fe3+  Fe5  1  0.91072926  0.65653179  0.81106535  1.0
  Fe3+  Fe6  1  0.25275325  0.20009610  0.05796188  1.0
  Fe3+  Fe6  1  0.19484809  0.15667857  0.35879833  1.0
  Fe3+  Fe6  1  0.31779077  0.17986252  0.71730505  1.0
  Fe3+  Fe6  1  0.20240729  0.51304988  0.05380681  1.0
  Fe3+  Fe6  1  0.27346180  0.52515671  0.36982120  1.0
  Fe3+  Fe6  1  0.25284686  0.46674685  0.68719657  1.0
  Fe3+  Fe6  1  0.25718219  0.82472051  0.04864217  1.0
  Fe3+  Fe6  1  0.26317850  0.87724770  0.38655044  1.0
  Fe3+  Fe6  1  0.25700531  0.86163109  0.72078562  1.0
  Fe3+  Fe6  1  0.57135744  0.16780228  0.03469725  1.0
  Fe3+  Fe6  1  0.57210954  0.20171408  0.35848630  1.0
  Fe3+  Fe6  1  0.61694970  0.16685321  0.71138228  1.0
  Fe3+  Fe6  1  0.58885760  0.48483172  0.03608938  1.0
  Fe3+  Fe6  1  0.59314092  0.50781799  0.34584770  1.0
  Fe3+  Fe6  1  0.62858126  0.51165016  0.68883193  1.0
  Fe3+  Fe6  1  0.62646130  0.85833852  0.01491522  1.0
  Fe3+  Fe6  1  0.55743262  0.83716512  0.37504398  1.0
  Fe3+  Fe6  1  0.60057853  0.86672909  0.71248307  1.0
  Fe3+  Fe6  1  0.95272012  0.17930249  0.02279490  1.0
  Fe3+  Fe6  1  0.91774066  0.17436646  0.32393404  1.0
  Fe3+  Fe6  1  0.90325729  0.18402765  0.69549488  1.0
  Fe3+  Fe6  1  0.90102521  0.53241744  0.02003727  1.0
  Fe3+  Fe6  1  0.93634087  0.47583665  0.41878716  1.0
  Fe3+  Fe6  1  0.91225175  0.50128854  0.72335756  1.0
  Fe3+  Fe6  1  0.90689119  0.87945528  0.04284019  1.0
  Fe3+  Fe6  1  0.91476767  0.83709928  0.39115546  1.0
  Fe3+  Fe6  1  0.92377314  0.85367209  0.71257694  1.0
  Fe3+  Fe7  1  0.08825104  0.19063715  0.12618682  1.0
  Fe3+  Fe7  1  0.08360604  0.14931353  0.46706897  1.0
  Fe3+  Fe7  1  0.04025368  0.18467899  0.79008888  1.0
  Fe3+  Fe7  1  0.09460111  0.48441900  0.09080184  1.0
  Fe3+  Fe7  1  0.07579950  0.48449251  0.43018569  1.0
  Fe3+  Fe7  1  0.10464935  0.55123486  0.78067366  1.0
  Fe3+  Fe7  1  0.08288804  0.83643617  0.11667944  1.0
  Fe3+  Fe7  1  0.10198050  0.86966493  0.44612912  1.0
  Fe3+  Fe7  1  0.08592343  0.87658314  0.80711748  1.0
  Fe3+  Fe7  1  0.43980244  0.21202054  0.15222135  1.0
  Fe3+  Fe7  1  0.44481919  0.18118396  0.45482082  1.0
  Fe3+  Fe7  1  0.42087955  0.16405572  0.76039609  1.0
  Fe3+  Fe7  1  0.41090436  0.51987727  0.11789884  1.0
  Fe3+  Fe7  1  0.41318031  0.50697929  0.48578547  1.0
  Fe3+  Fe7  1  0.40877702  0.54506766  0.74675157  1.0
  Fe3+  Fe7  1  0.45302810  0.87690770  0.14416824  1.0
  Fe3+  Fe7  1  0.36596860  0.86988543  0.46079291  1.0
  Fe3+  Fe7  1  0.35254314  0.87692716  0.82065113  1.0
  Fe3+  Fe7  1  0.70213249  0.18195254  0.15307144  1.0
  Fe3+  Fe7  1  0.78333682  0.19860919  0.41454439  1.0
  Fe3+  Fe7  1  0.77042097  0.17203063  0.81266998  1.0
  Fe3+  Fe7  1  0.75814136  0.51036173  0.13970805  1.0
  Fe3+  Fe7  1  0.74704722  0.51025090  0.45183136  1.0
  Fe3+  Fe7  1  0.70986249  0.52518023  0.78072992  1.0
  Fe3+  Fe7  1  0.74628146  0.85143178  0.09131175  1.0
  Fe3+  Fe7  1  0.70327758  0.83663905  0.46986746  1.0
  Fe3+  Fe7  1  0.77087304  0.80407468  0.80642152  1.0
  O2-  O8  1  0.14352868  0.06204071  0.15591533  1.0
  O2-  O8  1  0.17059743  0.09121615  0.50149224  1.0
  O2-  O8  1  0.15609003  0.10770770  0.83217599  1.0
  O2-  O8  1  0.15117546  0.44633759  0.16133690  1.0
  O2-  O8  1  0.16587932  0.40494115  0.49329957  1.0
  O2-  O8  1  0.14710569  0.43063252  0.85515358  1.0
  O2-  O8  1  0.15241659  0.71315910  0.17867677  1.0
  O2-  O8  1  0.21342099  0.75371419  0.47019898  1.0
  O2-  O8  1  0.15422805  0.75089838  0.83244442  1.0
  O2-  O8  1  0.50758977  0.11905797  0.51262255  1.0
  O2-  O8  1  0.47965326  0.11268929  0.80738356  1.0
  O2-  O8  1  0.46464000  0.40239658  0.16687600  1.0
  O2-  O8  1  0.49630850  0.41258044  0.48457595  1.0
  O2-  O8  1  0.50844255  0.41170445  0.83578446  1.0
  O2-  O8  1  0.49744415  0.75195455  0.16806882  1.0
  O2-  O8  1  0.50986261  0.75479080  0.51591445  1.0
  O2-  O8  1  0.49716824  0.80182592  0.84104956  1.0
  O2-  O8  1  0.83297068  0.11208363  0.16832587  1.0
  O2-  O8  1  0.79999285  0.07235308  0.49249717  1.0
  O2-  O8  1  0.79185033  0.09232046  0.82284304  1.0
  O2-  O8  1  0.82155648  0.41364036  0.16659851  1.0
  O2-  O8  1  0.83093909  0.40397815  0.51202907  1.0
  O2-  O8  1  0.85709837  0.42629178  0.82000446  1.0
  O2-  O8  1  0.80057210  0.74471491  0.15682709  1.0
  O2-  O8  1  0.79080074  0.75486739  0.49677508  1.0
  O2-  O8  1  0.82134865  0.78088660  0.82968264  1.0
  O2-  O9  1  0.15095842  0.24141943  0.18150156  1.0
  O2-  O9  1  0.19916962  0.26455308  0.48988964  1.0
  O2-  O9  1  0.20109132  0.27610713  0.82192093  1.0
  O2-  O9  1  0.18046890  0.63575019  0.15440760  1.0
  O2-  O9  1  0.13739114  0.61967703  0.52119410  1.0
  O2-  O9  1  0.16982177  0.58196115  0.81268527  1.0
  O2-  O9  1  0.18389918  0.94753940  0.15798281  1.0
  O2-  O9  1  0.20436465  0.92983516  0.51123033  1.0
  O2-  O9  1  0.16912659  0.90920223  0.80167125  1.0
  O2-  O9  1  0.50024095  0.28081151  0.15115162  1.0
  O2-  O9  1  0.49473337  0.26761771  0.50819067  1.0
  O2-  O9  1  0.53293584  0.22214850  0.87998306  1.0
  O2-  O9  1  0.48347484  0.58869902  0.16495933  1.0
  O2-  O9  1  0.48425850  0.57547595  0.50157036  1.0
  O2-  O9  1  0.49809456  0.60844013  0.83147110  1.0
  O2-  O9  1  0.48030963  0.88218657  0.17869009  1.0
  O2-  O9  1  0.47644188  0.92612135  0.50900043  1.0
  O2-  O9  1  0.48914590  0.94060142  0.80386984  1.0
  O2-  O9  1  0.85601091  0.25044652  0.16560481  1.0
  O2-  O9  1  0.81785001  0.22785162  0.52994432  1.0
  O2-  O9  1  0.87977713  0.27018677  0.85094672  1.0
  O2-  O9  1  0.87026939  0.57665725  0.16856071  1.0
  O2-  O9  1  0.81016744  0.58254851  0.52215133  1.0
  O2-  O9  1  0.83114492  0.61060636  0.83595829  1.0
  O2-  O9  1  0.81248236  0.89022460  0.18422085  1.0
  O2-  O9  1  0.86263940  0.92070910  0.49615980  1.0
  O2-  O9  1  0.85373364  0.94033815  0.86049925  1.0
  O2-  O10  1  0.05500284  0.25779085  0.99784751  1.0
  O2-  O10  1  0.01929559  0.26157684  0.34348468  1.0
  O2-  O10  1  0.04931562  0.30175700  0.66377005  1.0
  O2-  O10  1  0.07134302  0.61130155  0.99900258  1.0
  O2-  O10  1  0.05427875  0.62424608  0.32594022  1.0
  O2-  O10  1  0.06036821  0.60885196  0.70953326  1.0
  O2-  O10  1  0.00456422  0.90616842  0.96509156  1.0
  O2-  O10  1  0.03031705  0.92454051  0.32428724  1.0
  O2-  O10  1  0.01348596  0.88201965  0.68907879  1.0
  O2-  O10  1  0.33600404  0.32642262  0.99762925  1.0
  O2-  O10  1  0.32920362  0.23801706  0.30935886  1.0
  O2-  O10  1  0.36139003  0.23782578  0.68777383  1.0
  O2-  O10  1  0.34167004  0.61665180  0.01434116  1.0
  O2-  O10  1  0.34952090  0.62158825  0.35109925  1.0
  O2-  O10  1  0.42524721  0.57142245  0.66892717  1.0
  O2-  O10  1  0.38960964  0.87616227  0.02445356  1.0
  O2-  O10  1  0.36030245  0.89268496  0.31021103  1.0
  O2-  O10  1  0.33156591  0.85747241  0.65923710  1.0
  O2-  O10  1  0.69836224  0.23640375  0.02566834  1.0
  O2-  O10  1  0.72515077  0.28057536  0.33823512  1.0
  O2-  O10  1  0.62199162  0.23067041  0.66534107  1.0
  O2-  O10  1  0.65904246  0.57822866  0.02965004  1.0
  O2-  O10  1  0.63944676  0.62742401  0.34996317  1.0
  O2-  O10  1  0.68919205  0.56375366  0.65221838  1.0
  O2-  O10  1  0.63995894  0.95836397  0.02822696  1.0
  O2-  O10  1  0.64578517  0.90114598  0.34215688  1.0
  O2-  O10  1  0.67454538  0.86670398  0.65619755  1.0
  O2-  O11  1  0.36650862  0.06702760  0.99807763  1.0
  O2-  O11  1  0.28619883  0.09672188  0.33640337  1.0
  O2-  O11  1  0.29675271  0.04900852  0.69278142  1.0
  O2-  O11  1  0.27427223  0.42793865  0.96282427  1.0
  O2-  O11  1  0.33418577  0.43970005  0.35366265  1.0
  O2-  O11  1  0.31164486  0.45517332  0.70851431  1.0
  O2-  O11  1  0.30760061  0.73719819  0.00372964  1.0
  O2-  O11  1  0.30356571  0.73283976  0.32491159  1.0
  O2-  O11  1  0.36033517  0.76803072  0.65899300  1.0
  O2-  O11  1  0.58570097  0.04296224  0.01022876  1.0
  O2-  O11  1  0.59424384  0.08928988  0.31552199  1.0
  O2-  O11  1  0.65162010  0.08351267  0.66981958  1.0
  O2-  O11  1  0.63904590  0.40446289  0.98828853  1.0
  O2-  O11  1  0.66174054  0.43553724  0.31261856  1.0
  O2-  O11  1  0.64789535  0.42019240  0.67093592  1.0
  O2-  O11  1  0.65358885  0.73843287  0.00600525  1.0
  O2-  O11  1  0.66525389  0.75212528  0.34329254  1.0
  O2-  O11  1  0.67501421  0.70190176  0.68456021  1.0
  O2-  O11  1  0.99151418  0.05387537  0.01535435  1.0
  O2-  O11  1  0.97226899  0.07529773  0.32538943  1.0
  O2-  O11  1  0.99045860  0.06210164  0.68374984  1.0
  O2-  O11  1  0.97899904  0.40605340  0.01442832  1.0
  O2-  O11  1  0.97424299  0.43914229  0.35167213  1.0
  O2-  O11  1  0.94792195  0.44320367  0.64170114  1.0
  O2-  O11  1  0.01282859  0.79971010  0.01630223  1.0
  O2-  O11  1  0.92661620  0.77538491  0.37423656  1.0
  O2-  O11  1  0.97472595  0.74769436  0.64661177  1.0
  O2-  O12  1  0.30512353  0.06677497  0.56316713  1.0
  O2-  O12  1  0.37853427  0.03560804  0.85514171  1.0
  O2-  O12  1  0.30167147  0.30718291  0.20833832  1.0
  O2-  O12  1  0.33918689  0.37630623  0.55398849  1.0
  O2-  O12  1  0.34431007  0.36128606  0.90658121  1.0
  O2-  O12  1  0.30043610  0.71102410  0.19593304  1.0
  O2-  O12  1  0.28469057  0.66620651  0.54938156  1.0
  O2-  O12  1  0.30728578  0.67345472  0.92070878  1.0
  O2-  O12  1  0.63764377  0.03623253  0.23122580  1.0
  O2-  O12  1  0.60894698  0.03889707  0.53821850  1.0
  O2-  O12  1  0.67089441  0.00808397  0.88539141  1.0
  O2-  O12  1  0.63895222  0.37806337  0.20721222  1.0
  O2-  O12  1  0.60726202  0.35381812  0.56039347  1.0
  O2-  O12  1  0.62666700  0.38818340  0.89264979  1.0
  O2-  O12  1  0.57141500  0.70768214  0.25762298  1.0
  O2-  O12  1  0.66476275  0.71208218  0.86533812  1.0
  O2-  O12  1  0.97610824  0.05342657  0.54631884  1.0
  O2-  O12  1  0.97189766  0.07283830  0.86887504  1.0
  O2-  O12  1  0.93630626  0.38557363  0.22569381  1.0
  O2-  O12  1  0.99040529  0.38247482  0.54073291  1.0
  O2-  O12  1  0.97503731  0.33931234  0.87989185  1.0
  O2-  O12  1  0.97682373  0.69235239  0.59473475  1.0
  O2-  O12  1  0.91476353  0.68763818  0.86775111  1.0
  O2-  O13  1  0.01737555  0.18460482  0.19498923  1.0
  O2-  O13  1  0.05502882  0.18702281  0.55468832  1.0
  O2-  O13  1  0.02425976  0.51673090  0.24820943  1.0
  O2-  O13  1  0.05951415  0.48704725  0.51685762  1.0
  O2-  O13  1  0.06254080  0.52104299  0.85582838  1.0
  O2-  O13  1  0.06258349  0.87174744  0.22283496  1.0
  O2-  O13  1  0.05654431  0.83445501  0.52289308  1.0
  O2-  O13  1  0.07654408  0.83124819  0.86346390  1.0
  O2-  O13  1  0.34220992  0.25325814  0.56038640  1.0
  O2-  O13  1  0.39383349  0.20576262  0.87435364  1.0
  O2-  O13  1  0.38527172  0.49490320  0.19911019  1.0
  O2-  O13  1  0.38789596  0.49992966  0.54850543  1.0
  O2-  O13  1  0.36513401  0.52082090  0.85052805  1.0
  O2-  O13  1  0.35256999  0.84668349  0.22141332  1.0
  O2-  O13  1  0.37166655  0.87701284  0.53973134  1.0
  O2-  O13  1  0.38245935  0.82825189  0.85288423  1.0
  O2-  O13  1  0.64165426  0.18822794  0.20523212  1.0
  O2-  O13  1  0.72265005  0.18446200  0.55664508  1.0
  O2-  O13  1  0.72327366  0.18351257  0.89041874  1.0
  O2-  O13  1  0.72819309  0.50293233  0.21894476  1.0
  O2-  O13  1  0.68454644  0.50453770  0.52464328  1.0
  O2-  O13  1  0.67129605  0.53566351  0.85656611  1.0
  O2-  O13  1  0.68783895  0.88798632  0.22636030  1.0
  O2-  O13  1  0.68831421  0.91008533  0.58524293  1.0
  O2-  O13  1  0.70297167  0.80524421  0.90107035  1.0
  O2-  O14  1  0.07054075  0.07032959  0.30218378  1.0
  O2-  O14  1  0.17604331  0.03967372  0.60977531  1.0
  O2-  O14  1  0.11844082  0.35267220  0.30046013  1.0
  O2-  O14  1  0.14852886  0.36947624  0.60343797  1.0
  O2-  O14  1  0.19816601  0.38944861  0.92105835  1.0
  O2-  O14  1  0.11664407  0.72327111  0.26871772  1.0
  O2-  O14  1  0.13913381  0.72375067  0.55605048  1.0
  O2-  O14  1  0.12727949  0.69804392  0.94233534  1.0
  O2-  O14  1  0.47119143  0.04968964  0.28541585  1.0
  O2-  O14  1  0.45368535  0.04906188  0.61713504  1.0
  O2-  O14  1  0.45750296  0.00002530  0.92203450  1.0
  O2-  O14  1  0.42889214  0.37346248  0.28160910  1.0
  O2-  O14  1  0.42500866  0.38273046  0.64071426  1.0
  O2-  O14  1  0.44799474  0.32254980  0.93724416  1.0
  O2-  O14  1  0.48552347  0.71360836  0.26650263  1.0
  O2-  O14  1  0.50275809  0.73377238  0.60308956  1.0
  O2-  O14  1  0.77751152  0.01816476  0.60739247  1.0
  O2-  O14  1  0.82135369  0.04383545  0.96511866  1.0
  O2-  O14  1  0.81410369  0.40967320  0.26397142  1.0
  O2-  O14  1  0.80672098  0.31163666  0.59311231  1.0
  O2-  O14  1  0.79477910  0.37698920  0.94779527  1.0
  O2-  O14  1  0.78206412  0.68995998  0.64067860  1.0
  O2-  O14  1  0.78669209  0.74388179  0.96358782  1.0
  O2-  O15  1  0.21476703  0.16994129  0.29860558  1.0
  O2-  O15  1  0.19011210  0.16992004  0.62448947  1.0
  O2-  O15  1  0.16691378  0.18081702  0.94854473  1.0
  O2-  O15  1  0.26037553  0.51604953  0.27373379  1.0
  O2-  O15  1  0.22189168  0.50214764  0.62318812  1.0
  O2-  O15  1  0.23411366  0.52562591  0.96676493  1.0
  O2-  O15  1  0.21043680  0.84827939  0.27845823  1.0
  O2-  O15  1  0.19300540  0.86449239  0.95132069  1.0
  O2-  O15  1  0.55139203  0.21286034  0.23867334  1.0
  O2-  O15  1  0.53373804  0.16197843  0.61050116  1.0
  O2-  O15  1  0.53291345  0.22464686  0.94796248  1.0
  O2-  O15  1  0.54285002  0.55336392  0.30362165  1.0
  O2-  O15  1  0.53298262  0.53574320  0.61542433  1.0
  O2-  O15  1  0.52215629  0.51397704  0.90835433  1.0
  O2-  O15  1  0.50837121  0.82185756  0.30441788  1.0
  O2-  O15  1  0.54106617  0.86352671  0.60251534  1.0
  O2-  O15  1  0.53699496  0.84532197  0.95174932  1.0
  O2-  O15  1  0.87592592  0.17831735  0.26635513  1.0
  O2-  O15  1  0.89444952  0.19870258  0.60134141  1.0
  O2-  O15  1  0.85996317  0.17455533  0.94750338  1.0
  O2-  O15  1  0.89106412  0.53267101  0.32383232  1.0
  O2-  O15  1  0.88041688  0.53916649  0.59908299  1.0
  O2-  O15  1  0.86337062  0.51372747  0.91022568  1.0
  O2-  O15  1  0.89478766  0.85380685  0.26841651  1.0
  O2-  O15  1  0.87493815  0.87962360  0.60949624  1.0
  O2-  O15  1  0.86940040  0.88551555  0.94211876  1.0
  O2-  O16  1  0.04392286  0.25959296  0.09356761  1.0
  O2-  O16  1  0.05176069  0.26881297  0.45304171  1.0
  O2-  O16  1  0.03220552  0.29223806  0.76746414  1.0
  O2-  O16  1  0.05946606  0.67837624  0.45391521  1.0
  O2-  O16  1  0.04439092  0.61755713  0.76094434  1.0
  O2-  O16  1  0.03501926  0.94354295  0.08408985  1.0
  O2-  O16  1  0.05677044  0.98957960  0.43342924  1.0
  O2-  O16  1  0.04226207  0.99335612  0.78566134  1.0
  O2-  O16  1  0.33841839  0.29555541  0.13909595  1.0
  O2-  O16  1  0.37570051  0.31502042  0.78812940  1.0
  O2-  O16  1  0.34719065  0.61910736  0.12157845  1.0
  O2-  O16  1  0.39043795  0.66249246  0.43341834  1.0
  O2-  O16  1  0.38048745  0.66468949  0.76447355  1.0
  O2-  O16  1  0.40776907  0.00941645  0.16182972  1.0
  O2-  O16  1  0.37530026  0.97405495  0.46344087  1.0
  O2-  O16  1  0.38994226  0.99649298  0.79589936  1.0
  O2-  O16  1  0.69984489  0.33223742  0.09633686  1.0
  O2-  O16  1  0.70272635  0.34085364  0.42645520  1.0
  O2-  O16  1  0.68506621  0.31836403  0.78909195  1.0
  O2-  O16  1  0.68000686  0.62426721  0.09458535  1.0
  O2-  O16  1  0.72808705  0.62830916  0.48058135  1.0
  O2-  O16  1  0.70477576  0.62922038  0.77652100  1.0
  O2-  O16  1  0.69632659  0.97088812  0.16006080  1.0
  O2-  O16  1  0.69389651  0.96036994  0.45000528  1.0
  O2-  O16  1  0.73099727  0.93226686  0.79028451  1.0
  O2-  O17  1  0.18054141  0.31148661  0.04307532  1.0
  O2-  O17  1  0.14202154  0.30685512  0.39167656  1.0
  O2-  O17  1  0.18678487  0.28144250  0.69532842  1.0
  O2-  O17  1  0.22174463  0.65311355  0.03612452  1.0
  O2-  O17  1  0.18776742  0.62927463  0.42552659  1.0
  O2-  O17  1  0.21593769  0.60708409  0.72397015  1.0
  O2-  O17  1  0.16603779  0.98230628  0.08159511  1.0
  O2-  O17  1  0.24525148  0.98273246  0.37467345  1.0
  O2-  O17  1  0.16811986  0.92890044  0.66890191  1.0
  O2-  O17  1  0.55307899  0.29494422  0.06796403  1.0
  O2-  O17  1  0.57209529  0.30005591  0.38769273  1.0
  O2-  O17  1  0.52307617  0.28881121  0.73150393  1.0
  O2-  O17  1  0.53058915  0.62282722  0.05156397  1.0
  O2-  O17  1  0.55810015  0.61340633  0.38402271  1.0
  O2-  O17  1  0.54138297  0.66012289  0.71414802  1.0
  O2-  O17  1  0.51651384  0.95199152  0.07062477  1.0
  O2-  O17  1  0.58786076  0.93108002  0.36576124  1.0
  O2-  O17  1  0.53070980  0.96700119  0.73248447  1.0
  O2-  O17  1  0.84538772  0.27073294  0.05444645  1.0
  O2-  O17  1  0.86167550  0.32090232  0.39376086  1.0
  O2-  O17  1  0.88282353  0.29490272  0.76031193  1.0
  O2-  O17  1  0.84667817  0.64627062  0.02929761  1.0
  O2-  O17  1  0.84063681  0.61555739  0.41421685  1.0
  O2-  O17  1  0.87529618  0.94931600  0.05853885  1.0
  O2-  O17  1  0.86936229  0.95179959  0.36043681  1.0
  O2-  O17  1  0.90569492  0.96949379  0.75700979  1.0
  O2-  O18  1  0.32110557  0.14894804  0.10786468  1.0
  O2-  O18  1  0.26839013  0.12955804  0.42914165  1.0
  O2-  O18  1  0.31352611  0.17621157  0.77753846  1.0
  O2-  O18  1  0.32128264  0.45100354  0.11033702  1.0
  O2-  O18  1  0.27576331  0.41459853  0.44861564  1.0
  O2-  O18  1  0.30003578  0.49525445  0.79636913  1.0
  O2-  O18  1  0.31778575  0.77715606  0.12389606  1.0
  O2-  O18  1  0.33776083  0.81129190  0.48136561  1.0
  O2-  O18  1  0.34910632  0.79494547  0.76990748  1.0
  O2-  O18  1  0.61044892  0.09682149  0.10666816  1.0
  O2-  O18  1  0.66152091  0.07947749  0.43075252  1.0
  O2-  O18  1  0.62685328  0.11293128  0.77308501  1.0
  O2-  O18  1  0.61683565  0.46188766  0.10279113  1.0
  O2-  O18  1  0.60902321  0.49193766  0.46760836  1.0
  O2-  O18  1  0.59447342  0.39880355  0.80156065  1.0
  O2-  O18  1  0.59824078  0.80707825  0.08793990  1.0
  O2-  O18  1  0.66359164  0.86584758  0.45196315  1.0
  O2-  O18  1  0.62767840  0.79359226  0.79626852  1.0
  O2-  O18  1  0.97808954  0.16034877  0.10442039  1.0
  O2-  O18  1  0.97227765  0.12137047  0.43028103  1.0
  O2-  O18  1  0.96242099  0.11178845  0.80327916  1.0
  O2-  O18  1  0.94107412  0.47754705  0.10498779  1.0
  O2-  O18  1  0.97064243  0.45516953  0.42674130  1.0
  O2-  O18  1  0.97598366  0.46244549  0.78742997  1.0
  O2-  O18  1  0.95239225  0.76823320  0.13506290  1.0
  O2-  O18  1  0.98255870  0.78741960  0.45027708  1.0
  O2-  O18  1  0.99046403  0.79019107  0.77698729  1.0
  O2-  O19  1  0.13685374  0.11926365  0.06602739  1.0
  O2-  O19  1  0.12618023  0.11107085  0.39500192  1.0
  O2-  O19  1  0.10080140  0.18163960  0.74540882  1.0
  O2-  O19  1  0.14379834  0.47499668  0.05750495  1.0
  O2-  O19  1  0.11782163  0.47166804  0.36772664  1.0
  O2-  O19  1  0.14352314  0.81938627  0.04396437  1.0
  O2-  O19  1  0.11515824  0.76693527  0.41013975  1.0
  O2-  O19  1  0.11716063  0.79249455  0.72282214  1.0
  O2-  O19  1  0.47111976  0.14966161  0.04396492  1.0
  O2-  O19  1  0.43440965  0.09771735  0.37401481  1.0
  O2-  O19  1  0.43919519  0.12318361  0.74073665  1.0
  O2-  O19  1  0.45409045  0.45465033  0.05054615  1.0
  O2-  O19  1  0.45333853  0.46247287  0.39374375  1.0
  O2-  O19  1  0.48672155  0.48946591  0.75382100  1.0
  O2-  O19  1  0.47847907  0.85384303  0.03676103  1.0
  O2-  O19  1  0.51806816  0.78791495  0.37903946  1.0
  O2-  O19  1  0.46075277  0.79199327  0.71899966  1.0
  O2-  O19  1  0.78210196  0.15176442  0.04092102  1.0
  O2-  O19  1  0.81408708  0.16935701  0.37760058  1.0
  O2-  O19  1  0.81773753  0.14493669  0.75734700  1.0
  O2-  O19  1  0.78405278  0.48421806  0.02187079  1.0
  O2-  O19  1  0.78430988  0.47308206  0.40883767  1.0
  O2-  O19  1  0.76536452  0.48399162  0.71631557  1.0
  O2-  O19  1  0.75773725  0.80208366  0.08118178  1.0
  O2-  O19  1  0.76814888  0.79473348  0.36666960  1.0
  O2-  O19  1  0.78495677  0.83361450  0.71251902  1.0
