# generated using pymatgen
data_SiO2
_symmetry_space_group_name_H-M   'P 1'
_cell_length_a   24.57483000
_cell_length_b   24.57483253
_cell_length_c   27.15650500
_cell_angle_alpha   90.00000000
_cell_angle_beta   90.00000000
_cell_angle_gamma   119.99999659
_symmetry_Int_Tables_number   1
_chemical_formula_structural   SiO2
_chemical_formula_sum   'Si375 O750'
_cell_volume   14203.18068533
_cell_formula_units_Z   375
loop_
 _symmetry_equiv_pos_site_id
 _symmetry_equiv_pos_as_xyz
  1  'x, y, z'
loop_
 _atom_site_type_symbol
 _atom_site_label
 _atom_site_symmetry_multiplicity
 _atom_site_fract_x
 _atom_site_fract_y
 _atom_site_fract_z
 _atom_site_occupancy
  Si  Si2  1  0.09378213  0.00000000  0.00000000  1.0
  Si  Si3  1  0.09378213  0.00000000  0.19999996  1.0
  Si  Si4  1  0.09378239  0.20000019  0.00000000  1.0
  Si  Si5  1  0.09378239  0.20000019  0.19999996  1.0
  Si  Si10  1  0.10621764  0.10621766  0.13333343  1.0
  Si  Si12  1  0.19999972  0.09378205  0.06666653  1.0
  Si  Si16  1  0.09378213  0.00000000  0.39999993  1.0
  Si  Si17  1  0.09378239  0.20000019  0.39999993  1.0
  Si  Si22  1  0.10621764  0.10621766  0.33333333  1.0
  Si  Si24  1  0.19999972  0.09378205  0.26666649  1.0
  Si  Si28  1  0.09378213  0.00000000  0.59999989  1.0
  Si  Si29  1  0.09378239  0.20000019  0.59999989  1.0
  Si  Si34  1  0.10621764  0.10621766  0.53333446  1.0
  Si  Si36  1  0.19999972  0.09378205  0.46666535  1.0
  Si  Si40  1  0.09378213  0.00000000  0.79999985  1.0
  Si  Si41  1  0.09378239  0.20000019  0.79999985  1.0
  Si  Si46  1  0.10621764  0.10621766  0.73333443  1.0
  Si  Si48  1  0.19999972  0.09378205  0.66666667  1.0
  Si  Si56  1  0.10621764  0.10621766  0.93333439  1.0
  Si  Si58  1  0.19999972  0.09378205  0.86666528  1.0
  Si  Si62  1  0.09378233  0.39999991  0.00000000  1.0
  Si  Si63  1  0.09378233  0.39999991  0.19999996  1.0
  Si  Si69  1  0.10621786  0.30621785  0.13333343  1.0
  Si  Si71  1  0.19999993  0.29378224  0.06666653  1.0
  Si  Si72  1  0.20000038  0.49378290  0.06666653  1.0
  Si  Si76  1  0.09378233  0.39999991  0.39999993  1.0
  Si  Si82  1  0.10621786  0.30621785  0.33333333  1.0
  Si  Si84  1  0.19999993  0.29378224  0.26666649  1.0
  Si  Si85  1  0.20000038  0.49378290  0.26666649  1.0
  Si  Si89  1  0.09378233  0.39999991  0.59999989  1.0
  Si  Si95  1  0.10621786  0.30621785  0.53333446  1.0
  Si  Si97  1  0.19999993  0.29378224  0.46666535  1.0
  Si  Si98  1  0.20000038  0.49378290  0.46666535  1.0
  Si  Si102  1  0.09378233  0.39999991  0.79999985  1.0
  Si  Si108  1  0.10621786  0.30621785  0.73333443  1.0
  Si  Si110  1  0.19999993  0.29378224  0.66666667  1.0
  Si  Si111  1  0.20000038  0.49378290  0.66666667  1.0
  Si  Si120  1  0.10621786  0.30621785  0.93333439  1.0
  Si  Si122  1  0.19999993  0.29378224  0.86666528  1.0
  Si  Si123  1  0.20000038  0.49378290  0.86666528  1.0
  Si  Si129  1  0.09378349  0.60000197  0.00000000  1.0
  Si  Si130  1  0.09378349  0.60000197  0.19999996  1.0
  Si  Si134  1  0.10621690  0.50621569  0.13333343  1.0
  Si  Si135  1  0.10621694  0.70621635  0.13333343  1.0
  Si  Si137  1  0.20000083  0.69378356  0.06666653  1.0
  Si  Si144  1  0.09378349  0.60000197  0.39999993  1.0
  Si  Si148  1  0.10621690  0.50621569  0.33333333  1.0
  Si  Si149  1  0.10621694  0.70621635  0.33333333  1.0
  Si  Si151  1  0.20000083  0.69378356  0.26666649  1.0
  Si  Si158  1  0.09378349  0.60000197  0.59999989  1.0
  Si  Si162  1  0.10621690  0.50621569  0.53333446  1.0
  Si  Si163  1  0.10621694  0.70621635  0.53333446  1.0
  Si  Si165  1  0.20000083  0.69378356  0.46666535  1.0
  Si  Si172  1  0.09378349  0.60000197  0.79999985  1.0
  Si  Si176  1  0.10621690  0.50621569  0.73333443  1.0
  Si  Si177  1  0.10621694  0.70621635  0.73333443  1.0
  Si  Si179  1  0.20000083  0.69378356  0.66666667  1.0
  Si  Si189  1  0.10621690  0.50621569  0.93333439  1.0
  Si  Si190  1  0.10621694  0.70621635  0.93333439  1.0
  Si  Si192  1  0.20000083  0.69378356  0.86666528  1.0
  Si  Si197  1  0.09378118  0.79999793  0.00000000  1.0
  Si  Si198  1  0.09378118  0.79999793  0.19999996  1.0
  Si  Si202  1  0.10621740  0.90621701  0.13333343  1.0
  Si  Si205  1  0.20000088  0.89378422  0.06666653  1.0
  Si  Si209  1  0.09378118  0.79999793  0.39999993  1.0
  Si  Si213  1  0.10621740  0.90621701  0.33333333  1.0
  Si  Si216  1  0.20000088  0.89378422  0.26666649  1.0
  Si  Si220  1  0.09378118  0.79999793  0.59999989  1.0
  Si  Si224  1  0.10621740  0.90621701  0.53333446  1.0
  Si  Si227  1  0.20000088  0.89378422  0.46666535  1.0
  Si  Si231  1  0.09378118  0.79999793  0.79999985  1.0
  Si  Si235  1  0.10621740  0.90621701  0.73333443  1.0
  Si  Si238  1  0.20000088  0.89378422  0.66666667  1.0
  Si  Si245  1  0.10621740  0.90621701  0.93333439  1.0
  Si  Si248  1  0.20000088  0.89378422  0.86666528  1.0
  Si  Si251  1  0.29378230  0.00000000  0.00000000  1.0
  Si  Si252  1  0.29378230  0.00000000  0.19999996  1.0
  Si  Si253  1  0.29378251  0.20000019  0.00000000  1.0
  Si  Si254  1  0.29378251  0.20000019  0.19999996  1.0
  Si  Si255  1  0.49378165  0.00000000  0.00000000  1.0
  Si  Si256  1  0.49378165  0.00000000  0.19999996  1.0
  Si  Si257  1  0.49378227  0.20000019  0.00000000  1.0
  Si  Si258  1  0.49378227  0.20000019  0.19999996  1.0
  Si  Si265  1  0.30621781  0.10621766  0.13333343  1.0
  Si  Si267  1  0.39999988  0.09378205  0.06666653  1.0
  Si  Si270  1  0.29378230  0.00000000  0.39999993  1.0
  Si  Si271  1  0.29378251  0.20000019  0.39999993  1.0
  Si  Si272  1  0.49378165  0.00000000  0.39999993  1.0
  Si  Si273  1  0.49378227  0.20000019  0.39999993  1.0
  Si  Si280  1  0.30621781  0.10621766  0.33333333  1.0
  Si  Si282  1  0.39999988  0.09378205  0.26666649  1.0
  Si  Si285  1  0.29378230  0.00000000  0.59999989  1.0
  Si  Si286  1  0.29378251  0.20000019  0.59999989  1.0
  Si  Si287  1  0.49378165  0.00000000  0.59999989  1.0
  Si  Si288  1  0.49378227  0.20000019  0.59999989  1.0
  Si  Si295  1  0.30621781  0.10621766  0.53333446  1.0
  Si  Si297  1  0.39999988  0.09378205  0.46666535  1.0
  Si  Si300  1  0.29378230  0.00000000  0.79999985  1.0
  Si  Si301  1  0.29378251  0.20000019  0.79999985  1.0
  Si  Si302  1  0.49378165  0.00000000  0.79999985  1.0
  Si  Si303  1  0.49378227  0.20000019  0.79999985  1.0
  Si  Si310  1  0.30621781  0.10621766  0.73333443  1.0
  Si  Si312  1  0.39999988  0.09378205  0.66666667  1.0
  Si  Si321  1  0.30621781  0.10621766  0.93333439  1.0
  Si  Si323  1  0.39999988  0.09378205  0.86666528  1.0
  Si  Si326  1  0.29378209  0.39999991  0.00000000  1.0
  Si  Si327  1  0.29378209  0.39999991  0.19999996  1.0
  Si  Si328  1  0.49378225  0.39999991  0.00000000  1.0
  Si  Si329  1  0.49378225  0.39999991  0.19999996  1.0
  Si  Si339  1  0.30621761  0.30621785  0.13333343  1.0
  Si  Si341  1  0.40000009  0.29378224  0.06666653  1.0
  Si  Si342  1  0.40000014  0.49378290  0.06666653  1.0
  Si  Si345  1  0.29378209  0.39999991  0.39999993  1.0
  Si  Si346  1  0.49378225  0.39999991  0.39999993  1.0
  Si  Si356  1  0.30621761  0.30621785  0.33333333  1.0
  Si  Si358  1  0.40000009  0.29378224  0.26666649  1.0
  Si  Si359  1  0.40000014  0.49378290  0.26666649  1.0
  Si  Si362  1  0.29378209  0.39999991  0.59999989  1.0
  Si  Si363  1  0.49378225  0.39999991  0.59999989  1.0
  Si  Si373  1  0.30621761  0.30621785  0.53333446  1.0
  Si  Si375  1  0.40000009  0.29378224  0.46666535  1.0
  Si  Si376  1  0.40000014  0.49378290  0.46666535  1.0
  Si  Si379  1  0.29378209  0.39999991  0.79999985  1.0
  Si  Si380  1  0.49378225  0.39999991  0.79999985  1.0
  Si  Si390  1  0.30621761  0.30621785  0.73333443  1.0
  Si  Si392  1  0.40000009  0.29378224  0.66666667  1.0
  Si  Si393  1  0.40000014  0.49378290  0.66666667  1.0
  Si  Si405  1  0.30621761  0.30621785  0.93333439  1.0
  Si  Si407  1  0.40000009  0.29378224  0.86666528  1.0
  Si  Si408  1  0.40000014  0.49378290  0.86666528  1.0
  Si  Si412  1  0.29378328  0.60000197  0.00000000  1.0
  Si  Si413  1  0.29378328  0.60000197  0.19999996  1.0
  Si  Si414  1  0.49378341  0.60000197  0.00000000  1.0
  Si  Si415  1  0.49378341  0.60000197  0.19999996  1.0
  Si  Si421  1  0.30621666  0.50621569  0.13333343  1.0
  Si  Si422  1  0.30621711  0.70621635  0.13333343  1.0
  Si  Si424  1  0.40000059  0.69378356  0.06666653  1.0
  Si  Si429  1  0.29378328  0.60000197  0.39999993  1.0
  Si  Si430  1  0.49378341  0.60000197  0.39999993  1.0
  Si  Si436  1  0.30621666  0.50621569  0.33333333  1.0
  Si  Si437  1  0.30621711  0.70621635  0.33333333  1.0
  Si  Si439  1  0.40000059  0.69378356  0.26666649  1.0
  Si  Si444  1  0.29378328  0.60000197  0.59999989  1.0
  Si  Si445  1  0.49378341  0.60000197  0.59999989  1.0
  Si  Si451  1  0.30621666  0.50621569  0.53333446  1.0
  Si  Si452  1  0.30621711  0.70621635  0.53333446  1.0
  Si  Si454  1  0.40000059  0.69378356  0.46666535  1.0
  Si  Si459  1  0.29378328  0.60000197  0.79999985  1.0
  Si  Si460  1  0.49378341  0.60000197  0.79999985  1.0
  Si  Si466  1  0.30621666  0.50621569  0.73333443  1.0
  Si  Si467  1  0.30621711  0.70621635  0.73333443  1.0
  Si  Si469  1  0.40000059  0.69378356  0.66666667  1.0
  Si  Si479  1  0.30621666  0.50621569  0.93333439  1.0
  Si  Si480  1  0.30621711  0.70621635  0.93333439  1.0
  Si  Si482  1  0.40000059  0.69378356  0.86666528  1.0
  Si  Si486  1  0.29378134  0.79999793  0.00000000  1.0
  Si  Si487  1  0.29378134  0.79999793  0.19999996  1.0
  Si  Si488  1  0.49378110  0.79999793  0.00000000  1.0
  Si  Si489  1  0.49378110  0.79999793  0.19999996  1.0
  Si  Si495  1  0.30621756  0.90621701  0.13333343  1.0
  Si  Si498  1  0.40000104  0.89378422  0.06666653  1.0
  Si  Si501  1  0.29378134  0.79999793  0.39999993  1.0
  Si  Si502  1  0.49378110  0.79999793  0.39999993  1.0
  Si  Si508  1  0.30621756  0.90621701  0.33333333  1.0
  Si  Si511  1  0.40000104  0.89378422  0.26666649  1.0
  Si  Si514  1  0.29378134  0.79999793  0.59999989  1.0
  Si  Si515  1  0.49378110  0.79999793  0.59999989  1.0
  Si  Si521  1  0.30621756  0.90621701  0.53333446  1.0
  Si  Si524  1  0.40000104  0.89378422  0.46666535  1.0
  Si  Si527  1  0.29378134  0.79999793  0.79999985  1.0
  Si  Si528  1  0.49378110  0.79999793  0.79999985  1.0
  Si  Si534  1  0.30621756  0.90621701  0.73333443  1.0
  Si  Si537  1  0.40000104  0.89378422  0.66666667  1.0
  Si  Si545  1  0.30621756  0.90621701  0.93333439  1.0
  Si  Si548  1  0.40000104  0.89378422  0.86666528  1.0
  Si  Si551  1  0.69378303  0.00000000  0.00000000  1.0
  Si  Si552  1  0.69378303  0.00000000  0.19999996  1.0
  Si  Si553  1  0.69378243  0.20000019  0.00000000  1.0
  Si  Si554  1  0.69378243  0.20000019  0.19999996  1.0
  Si  Si561  1  0.50621878  0.10621766  0.13333343  1.0
  Si  Si562  1  0.70621610  0.10621766  0.13333343  1.0
  Si  Si565  1  0.60000167  0.09378205  0.06666653  1.0
  Si  Si568  1  0.69378303  0.00000000  0.39999993  1.0
  Si  Si569  1  0.69378243  0.20000019  0.39999993  1.0
  Si  Si576  1  0.50621878  0.10621766  0.33333333  1.0
  Si  Si577  1  0.70621610  0.10621766  0.33333333  1.0
  Si  Si580  1  0.60000167  0.09378205  0.26666649  1.0
  Si  Si583  1  0.69378303  0.00000000  0.59999989  1.0
  Si  Si584  1  0.69378243  0.20000019  0.59999989  1.0
  Si  Si591  1  0.50621878  0.10621766  0.53333446  1.0
  Si  Si592  1  0.70621610  0.10621766  0.53333446  1.0
  Si  Si595  1  0.60000167  0.09378205  0.46666535  1.0
  Si  Si598  1  0.69378303  0.00000000  0.79999985  1.0
  Si  Si599  1  0.69378243  0.20000019  0.79999985  1.0
  Si  Si606  1  0.50621878  0.10621766  0.73333443  1.0
  Si  Si607  1  0.70621610  0.10621766  0.73333443  1.0
  Si  Si610  1  0.60000167  0.09378205  0.66666667  1.0
  Si  Si619  1  0.50621878  0.10621766  0.93333439  1.0
  Si  Si620  1  0.70621610  0.10621766  0.93333439  1.0
  Si  Si623  1  0.60000167  0.09378205  0.86666528  1.0
  Si  Si626  1  0.69378160  0.39999991  0.00000000  1.0
  Si  Si627  1  0.69378160  0.39999991  0.19999996  1.0
  Si  Si634  1  0.50621778  0.30621785  0.13333343  1.0
  Si  Si635  1  0.70621957  0.30621785  0.13333343  1.0
  Si  Si638  1  0.60000107  0.29378224  0.06666653  1.0
  Si  Si639  1  0.60000030  0.49378290  0.06666653  1.0
  Si  Si642  1  0.69378160  0.39999991  0.39999993  1.0
  Si  Si649  1  0.50621778  0.30621785  0.33333333  1.0
  Si  Si650  1  0.70621957  0.30621785  0.33333333  1.0
  Si  Si653  1  0.60000107  0.29378224  0.26666649  1.0
  Si  Si654  1  0.60000030  0.49378290  0.26666649  1.0
  Si  Si657  1  0.69378160  0.39999991  0.59999989  1.0
  Si  Si664  1  0.50621778  0.30621785  0.53333446  1.0
  Si  Si665  1  0.70621957  0.30621785  0.53333446  1.0
  Si  Si668  1  0.60000107  0.29378224  0.46666535  1.0
  Si  Si669  1  0.60000030  0.49378290  0.46666535  1.0
  Si  Si672  1  0.69378160  0.39999991  0.79999985  1.0
  Si  Si679  1  0.50621778  0.30621785  0.73333443  1.0
  Si  Si680  1  0.70621957  0.30621785  0.73333443  1.0
  Si  Si683  1  0.60000107  0.29378224  0.66666667  1.0
  Si  Si684  1  0.60000030  0.49378290  0.66666667  1.0
  Si  Si693  1  0.50621778  0.30621785  0.93333439  1.0
  Si  Si694  1  0.70621957  0.30621785  0.93333439  1.0
  Si  Si697  1  0.60000107  0.29378224  0.86666528  1.0
  Si  Si698  1  0.60000030  0.49378290  0.86666528  1.0
  Si  Si702  1  0.69378316  0.60000197  0.00000000  1.0
  Si  Si703  1  0.69378316  0.60000197  0.19999996  1.0
  Si  Si708  1  0.50621682  0.50621569  0.13333343  1.0
  Si  Si709  1  0.50621686  0.70621635  0.13333343  1.0
  Si  Si710  1  0.70621780  0.50621569  0.13333343  1.0
  Si  Si711  1  0.70621703  0.70621635  0.13333343  1.0
  Si  Si714  1  0.60000075  0.69378356  0.06666653  1.0
  Si  Si719  1  0.69378316  0.60000197  0.39999993  1.0
  Si  Si724  1  0.50621682  0.50621569  0.33333333  1.0
  Si  Si725  1  0.50621686  0.70621635  0.33333333  1.0
  Si  Si726  1  0.70621780  0.50621569  0.33333333  1.0
  Si  Si727  1  0.70621703  0.70621635  0.33333333  1.0
  Si  Si730  1  0.60000075  0.69378356  0.26666649  1.0
  Si  Si735  1  0.69378316  0.60000197  0.59999989  1.0
  Si  Si740  1  0.50621682  0.50621569  0.53333446  1.0
  Si  Si741  1  0.50621686  0.70621635  0.53333446  1.0
  Si  Si742  1  0.70621780  0.50621569  0.53333446  1.0
  Si  Si743  1  0.70621703  0.70621635  0.53333446  1.0
  Si  Si746  1  0.60000075  0.69378356  0.46666535  1.0
  Si  Si751  1  0.69378316  0.60000197  0.79999985  1.0
  Si  Si756  1  0.50621682  0.50621569  0.73333443  1.0
  Si  Si757  1  0.50621686  0.70621635  0.73333443  1.0
  Si  Si758  1  0.70621780  0.50621569  0.73333443  1.0
  Si  Si759  1  0.70621703  0.70621635  0.73333443  1.0
  Si  Si762  1  0.60000075  0.69378356  0.66666667  1.0
  Si  Si771  1  0.50621682  0.50621569  0.93333439  1.0
  Si  Si772  1  0.50621686  0.70621635  0.93333439  1.0
  Si  Si773  1  0.70621780  0.50621569  0.93333439  1.0
  Si  Si774  1  0.70621703  0.70621635  0.93333439  1.0
  Si  Si777  1  0.60000075  0.69378356  0.86666528  1.0
  Si  Si781  1  0.69378126  0.79999793  0.00000000  1.0
  Si  Si782  1  0.69378126  0.79999793  0.19999996  1.0
  Si  Si787  1  0.50621731  0.90621701  0.13333343  1.0
  Si  Si788  1  0.70621748  0.90621701  0.13333343  1.0
  Si  Si793  1  0.60000080  0.89378422  0.06666653  1.0
  Si  Si796  1  0.69378126  0.79999793  0.39999993  1.0
  Si  Si801  1  0.50621731  0.90621701  0.33333333  1.0
  Si  Si802  1  0.70621748  0.90621701  0.33333333  1.0
  Si  Si807  1  0.60000080  0.89378422  0.26666649  1.0
  Si  Si810  1  0.69378126  0.79999793  0.59999989  1.0
  Si  Si815  1  0.50621731  0.90621701  0.53333446  1.0
  Si  Si816  1  0.70621748  0.90621701  0.53333446  1.0
  Si  Si821  1  0.60000080  0.89378422  0.46666535  1.0
  Si  Si824  1  0.69378126  0.79999793  0.79999985  1.0
  Si  Si829  1  0.50621731  0.90621701  0.73333443  1.0
  Si  Si830  1  0.70621748  0.90621701  0.73333443  1.0
  Si  Si835  1  0.60000080  0.89378422  0.66666667  1.0
  Si  Si842  1  0.50621731  0.90621701  0.93333439  1.0
  Si  Si843  1  0.70621748  0.90621701  0.93333439  1.0
  Si  Si848  1  0.60000080  0.89378422  0.86666528  1.0
  Si  Si851  1  0.89378034  0.00000000  0.00000000  1.0
  Si  Si852  1  0.89378034  0.00000000  0.19999996  1.0
  Si  Si853  1  0.89378381  0.20000019  0.00000000  1.0
  Si  Si854  1  0.89378381  0.20000019  0.19999996  1.0
  Si  Si859  1  0.90621748  0.10621766  0.13333343  1.0
  Si  Si861  1  0.00000037  0.09378205  0.06666653  1.0
  Si  Si862  1  0.79999898  0.09378205  0.06666653  1.0
  Si  Si866  1  0.89378034  0.00000000  0.39999993  1.0
  Si  Si867  1  0.89378381  0.20000019  0.39999993  1.0
  Si  Si872  1  0.90621748  0.10621766  0.33333333  1.0
  Si  Si874  1  0.00000037  0.09378205  0.26666649  1.0
  Si  Si875  1  0.79999898  0.09378205  0.26666649  1.0
  Si  Si879  1  0.89378034  0.00000000  0.59999989  1.0
  Si  Si880  1  0.89378381  0.20000019  0.59999989  1.0
  Si  Si885  1  0.90621748  0.10621766  0.53333446  1.0
  Si  Si887  1  0.00000037  0.09378205  0.46666535  1.0
  Si  Si888  1  0.79999898  0.09378205  0.46666535  1.0
  Si  Si892  1  0.89378034  0.00000000  0.79999985  1.0
  Si  Si893  1  0.89378381  0.20000019  0.79999985  1.0
  Si  Si898  1  0.90621748  0.10621766  0.73333443  1.0
  Si  Si900  1  0.00000037  0.09378205  0.66666667  1.0
  Si  Si901  1  0.79999898  0.09378205  0.66666667  1.0
  Si  Si909  1  0.90621748  0.10621766  0.93333439  1.0
  Si  Si911  1  0.00000037  0.09378205  0.86666528  1.0
  Si  Si912  1  0.79999898  0.09378205  0.86666528  1.0
  Si  Si916  1  0.89378298  0.39999991  0.00000000  1.0
  Si  Si917  1  0.89378298  0.39999991  0.19999996  1.0
  Si  Si923  1  0.90621688  0.30621785  0.13333343  1.0
  Si  Si925  1  0.99999977  0.29378224  0.06666653  1.0
  Si  Si926  1  0.99999941  0.49378290  0.06666653  1.0
  Si  Si927  1  0.79999839  0.29378224  0.06666653  1.0
  Si  Si928  1  0.80000209  0.49378290  0.06666653  1.0
  Si  Si932  1  0.89378298  0.39999991  0.39999993  1.0
  Si  Si938  1  0.90621688  0.30621785  0.33333333  1.0
  Si  Si940  1  0.99999977  0.29378224  0.26666649  1.0
  Si  Si941  1  0.99999941  0.49378290  0.26666649  1.0
  Si  Si942  1  0.79999839  0.29378224  0.26666649  1.0
  Si  Si943  1  0.80000209  0.49378290  0.26666649  1.0
  Si  Si947  1  0.89378298  0.39999991  0.59999989  1.0
  Si  Si953  1  0.90621688  0.30621785  0.53333446  1.0
  Si  Si955  1  0.99999977  0.29378224  0.46666535  1.0
  Si  Si956  1  0.99999941  0.49378290  0.46666535  1.0
  Si  Si957  1  0.79999839  0.29378224  0.46666535  1.0
  Si  Si958  1  0.80000209  0.49378290  0.46666535  1.0
  Si  Si962  1  0.89378298  0.39999991  0.79999985  1.0
  Si  Si968  1  0.90621688  0.30621785  0.73333443  1.0
  Si  Si970  1  0.99999977  0.29378224  0.66666667  1.0
  Si  Si971  1  0.99999941  0.49378290  0.66666667  1.0
  Si  Si972  1  0.79999839  0.29378224  0.66666667  1.0
  Si  Si973  1  0.80000209  0.49378290  0.66666667  1.0
  Si  Si982  1  0.90621688  0.30621785  0.93333439  1.0
  Si  Si984  1  0.99999977  0.29378224  0.86666528  1.0
  Si  Si985  1  0.99999941  0.49378290  0.86666528  1.0
  Si  Si986  1  0.79999839  0.29378224  0.86666528  1.0
  Si  Si987  1  0.80000209  0.49378290  0.86666528  1.0
  Si  Si992  1  0.89378332  0.60000197  0.00000000  1.0
  Si  Si993  1  0.89378332  0.60000197  0.19999996  1.0
  Si  Si997  1  0.90621511  0.50621569  0.13333343  1.0
  Si  Si998  1  0.90621882  0.70621635  0.13333343  1.0
  Si  Si1000  1  0.99999904  0.69378356  0.06666653  1.0
  Si  Si1001  1  0.80000173  0.69378356  0.06666653  1.0
  Si  Si1008  1  0.89378332  0.60000197  0.39999993  1.0
  Si  Si1012  1  0.90621511  0.50621569  0.33333333  1.0
  Si  Si1013  1  0.90621882  0.70621635  0.33333333  1.0
  Si  Si1015  1  0.99999904  0.69378356  0.26666649  1.0
  Si  Si1016  1  0.80000173  0.69378356  0.26666649  1.0
  Si  Si1023  1  0.89378332  0.60000197  0.59999989  1.0
  Si  Si1027  1  0.90621511  0.50621569  0.53333446  1.0
  Si  Si1028  1  0.90621882  0.70621635  0.53333446  1.0
  Si  Si1030  1  0.99999904  0.69378356  0.46666535  1.0
  Si  Si1031  1  0.80000173  0.69378356  0.46666535  1.0
  Si  Si1038  1  0.89378332  0.60000197  0.79999985  1.0
  Si  Si1042  1  0.90621511  0.50621569  0.73333443  1.0
  Si  Si1043  1  0.90621882  0.70621635  0.73333443  1.0
  Si  Si1045  1  0.99999904  0.69378356  0.66666667  1.0
  Si  Si1046  1  0.80000173  0.69378356  0.66666667  1.0
  Si  Si1056  1  0.90621511  0.50621569  0.93333439  1.0
  Si  Si1057  1  0.90621882  0.70621635  0.93333439  1.0
  Si  Si1059  1  0.99999904  0.69378356  0.86666528  1.0
  Si  Si1060  1  0.80000173  0.69378356  0.86666528  1.0
  Si  Si1066  1  0.89378061  0.79999793  0.00000000  1.0
  Si  Si1067  1  0.89378061  0.79999793  0.19999996  1.0
  Si  Si1071  1  0.90621845  0.90621701  0.13333343  1.0
  Si  Si1074  1  0.00000275  0.89378422  0.06666653  1.0
  Si  Si1075  1  0.80000096  0.89378422  0.06666653  1.0
  Si  Si1079  1  0.89378061  0.79999793  0.39999993  1.0
  Si  Si1083  1  0.90621845  0.90621701  0.33333333  1.0
  Si  Si1086  1  0.00000275  0.89378422  0.26666649  1.0
  Si  Si1087  1  0.80000096  0.89378422  0.26666649  1.0
  Si  Si1091  1  0.89378061  0.79999793  0.59999989  1.0
  Si  Si1095  1  0.90621845  0.90621701  0.53333446  1.0
  Si  Si1098  1  0.00000275  0.89378422  0.46666535  1.0
  Si  Si1099  1  0.80000096  0.89378422  0.46666535  1.0
  Si  Si1103  1  0.89378061  0.79999793  0.79999985  1.0
  Si  Si1107  1  0.90621845  0.90621701  0.73333443  1.0
  Si  Si1110  1  0.00000275  0.89378422  0.66666667  1.0
  Si  Si1111  1  0.80000096  0.89378422  0.66666667  1.0
  Si  Si1118  1  0.90621845  0.90621701  0.93333439  1.0
  Si  Si1121  1  0.00000275  0.89378422  0.86666528  1.0
  Si  Si1122  1  0.80000096  0.89378422  0.86666528  1.0
  O  O0  1  0.02883442  0.14615530  0.02364487  1.0
  O  O1  1  0.22883417  0.14615530  0.02364487  1.0
  O  O6  1  0.05384469  0.08267900  0.09031170  1.0
  O  O7  1  0.08267885  0.05384442  0.17635517  1.0
  O  O8  1  0.14615517  0.02883425  0.04302174  1.0
  O  O9  1  0.14615540  0.22883430  0.04302174  1.0
  O  O11  1  0.11732105  0.17116560  0.15697823  1.0
  O  O13  1  0.17116595  0.11732119  0.10968864  1.0
  O  O14  1  0.02883442  0.14615530  0.22364476  1.0
  O  O15  1  0.22883417  0.14615530  0.22364476  1.0
  O  O18  1  0.05384469  0.08267900  0.29031166  1.0
  O  O19  1  0.08267885  0.05384442  0.37635550  1.0
  O  O20  1  0.14615517  0.02883425  0.24302170  1.0
  O  O21  1  0.14615540  0.22883430  0.24302170  1.0
  O  O23  1  0.11732105  0.17116560  0.35697819  1.0
  O  O25  1  0.17116595  0.11732119  0.30968860  1.0
  O  O26  1  0.02883442  0.14615530  0.42364435  1.0
  O  O27  1  0.22883417  0.14615530  0.42364435  1.0
  O  O30  1  0.05384469  0.08267900  0.49030978  1.0
  O  O31  1  0.08267885  0.05384442  0.57635546  1.0
  O  O32  1  0.14615517  0.02883425  0.44302093  1.0
  O  O33  1  0.14615540  0.22883430  0.44302093  1.0
  O  O35  1  0.11732105  0.17116560  0.55697889  1.0
  O  O37  1  0.17116595  0.11732119  0.50969004  1.0
  O  O38  1  0.02883442  0.14615530  0.62364432  1.0
  O  O39  1  0.22883417  0.14615530  0.62364432  1.0
  O  O42  1  0.05384469  0.08267900  0.69030974  1.0
  O  O43  1  0.08267885  0.05384442  0.77635543  1.0
  O  O44  1  0.14615517  0.02883425  0.64302089  1.0
  O  O45  1  0.14615540  0.22883430  0.64302089  1.0
  O  O47  1  0.11732105  0.17116560  0.75697885  1.0
  O  O49  1  0.17116595  0.11732119  0.70969000  1.0
  O  O50  1  0.02883442  0.14615530  0.82364428  1.0
  O  O51  1  0.22883417  0.14615530  0.82364428  1.0
  O  O52  1  0.05384469  0.08267900  0.89031339  1.0
  O  O53  1  0.08267885  0.05384442  0.97635539  1.0
  O  O54  1  0.14615517  0.02883425  0.84302085  1.0
  O  O55  1  0.14615540  0.22883430  0.84302085  1.0
  O  O57  1  0.11732105  0.17116560  0.95697882  1.0
  O  O59  1  0.17116595  0.11732119  0.90968996  1.0
  O  O60  1  0.02883422  0.34615549  0.02364487  1.0
  O  O61  1  0.22883439  0.34615549  0.02364487  1.0
  O  O64  1  0.05384455  0.28267872  0.09031170  1.0
  O  O65  1  0.05384524  0.48267984  0.09031170  1.0
  O  O66  1  0.08267907  0.25384460  0.17635517  1.0
  O  O67  1  0.08267887  0.45384479  0.17635517  1.0
  O  O68  1  0.14615553  0.42883449  0.04302174  1.0
  O  O70  1  0.11732118  0.37116579  0.15697823  1.0
  O  O73  1  0.17116565  0.31732091  0.10968864  1.0
  O  O74  1  0.02883422  0.34615549  0.22364476  1.0
  O  O75  1  0.22883439  0.34615549  0.22364476  1.0
  O  O77  1  0.05384455  0.28267872  0.29031166  1.0
  O  O78  1  0.05384524  0.48267984  0.29031166  1.0
  O  O79  1  0.08267907  0.25384460  0.37635550  1.0
  O  O80  1  0.08267887  0.45384479  0.37635550  1.0
  O  O81  1  0.14615553  0.42883449  0.24302170  1.0
  O  O83  1  0.11732118  0.37116579  0.35697819  1.0
  O  O86  1  0.17116565  0.31732091  0.30968860  1.0
  O  O87  1  0.02883422  0.34615549  0.42364435  1.0
  O  O88  1  0.22883439  0.34615549  0.42364435  1.0
  O  O90  1  0.05384455  0.28267872  0.49030978  1.0
  O  O91  1  0.05384524  0.48267984  0.49030978  1.0
  O  O92  1  0.08267907  0.25384460  0.57635546  1.0
  O  O93  1  0.08267887  0.45384479  0.57635546  1.0
  O  O94  1  0.14615553  0.42883449  0.44302093  1.0
  O  O96  1  0.11732118  0.37116579  0.55697889  1.0
  O  O99  1  0.17116565  0.31732091  0.50969004  1.0
  O  O100  1  0.02883422  0.34615549  0.62364432  1.0
  O  O101  1  0.22883439  0.34615549  0.62364432  1.0
  O  O103  1  0.05384455  0.28267872  0.69030974  1.0
  O  O104  1  0.05384524  0.48267984  0.69030974  1.0
  O  O105  1  0.08267907  0.25384460  0.77635543  1.0
  O  O106  1  0.08267887  0.45384479  0.77635543  1.0
  O  O107  1  0.14615553  0.42883449  0.64302089  1.0
  O  O109  1  0.11732118  0.37116579  0.75697885  1.0
  O  O112  1  0.17116565  0.31732091  0.70969000  1.0
  O  O113  1  0.02883422  0.34615549  0.82364428  1.0
  O  O114  1  0.22883439  0.34615549  0.82364428  1.0
  O  O115  1  0.05384455  0.28267872  0.89031339  1.0
  O  O116  1  0.05384524  0.48267984  0.89031339  1.0
  O  O117  1  0.08267907  0.25384460  0.97635539  1.0
  O  O118  1  0.08267887  0.45384479  0.97635539  1.0
  O  O119  1  0.14615553  0.42883449  0.84302085  1.0
  O  O121  1  0.11732118  0.37116579  0.95697882  1.0
  O  O124  1  0.17116565  0.31732091  0.90968996  1.0
  O  O125  1  0.02883397  0.54615474  0.02364487  1.0
  O  O126  1  0.02883442  0.74615540  0.02364487  1.0
  O  O127  1  0.22883413  0.54615474  0.02364487  1.0
  O  O128  1  0.22883418  0.74615540  0.02364487  1.0
  O  O131  1  0.05384528  0.68268050  0.09031170  1.0
  O  O132  1  0.08267886  0.65384451  0.17635517  1.0
  O  O133  1  0.14615504  0.62883327  0.04302174  1.0
  O  O136  1  0.11732140  0.57116598  0.15697823  1.0
  O  O138  1  0.17116692  0.51732344  0.10968864  1.0
  O  O139  1  0.17116502  0.71731940  0.10968864  1.0
  O  O140  1  0.02883397  0.54615474  0.22364476  1.0
  O  O141  1  0.02883442  0.74615540  0.22364476  1.0
  O  O142  1  0.22883413  0.54615474  0.22364476  1.0
  O  O143  1  0.22883418  0.74615540  0.22364476  1.0
  O  O145  1  0.05384528  0.68268050  0.29031166  1.0
  O  O146  1  0.08267886  0.65384451  0.37635550  1.0
  O  O147  1  0.14615504  0.62883327  0.24302170  1.0
  O  O150  1  0.11732140  0.57116598  0.35697819  1.0
  O  O152  1  0.17116692  0.51732344  0.30968860  1.0
  O  O153  1  0.17116502  0.71731940  0.30968860  1.0
  O  O154  1  0.02883397  0.54615474  0.42364435  1.0
  O  O155  1  0.02883442  0.74615540  0.42364435  1.0
  O  O156  1  0.22883413  0.54615474  0.42364435  1.0
  O  O157  1  0.22883418  0.74615540  0.42364435  1.0
  O  O159  1  0.05384528  0.68268050  0.49030978  1.0
  O  O160  1  0.08267886  0.65384451  0.57635546  1.0
  O  O161  1  0.14615504  0.62883327  0.44302093  1.0
  O  O164  1  0.11732140  0.57116598  0.55697889  1.0
  O  O166  1  0.17116692  0.51732344  0.50969004  1.0
  O  O167  1  0.17116502  0.71731940  0.50969004  1.0
  O  O168  1  0.02883397  0.54615474  0.62364432  1.0
  O  O169  1  0.02883442  0.74615540  0.62364432  1.0
  O  O170  1  0.22883413  0.54615474  0.62364432  1.0
  O  O171  1  0.22883418  0.74615540  0.62364432  1.0
  O  O173  1  0.05384528  0.68268050  0.69030974  1.0
  O  O174  1  0.08267886  0.65384451  0.77635543  1.0
  O  O175  1  0.14615504  0.62883327  0.64302089  1.0
  O  O178  1  0.11732140  0.57116598  0.75697885  1.0
  O  O180  1  0.17116692  0.51732344  0.70969000  1.0
  O  O181  1  0.17116502  0.71731940  0.70969000  1.0
  O  O182  1  0.02883397  0.54615474  0.82364428  1.0
  O  O183  1  0.02883442  0.74615540  0.82364428  1.0
  O  O184  1  0.22883413  0.54615474  0.82364428  1.0
  O  O185  1  0.22883418  0.74615540  0.82364428  1.0
  O  O186  1  0.05384528  0.68268050  0.89031339  1.0
  O  O187  1  0.08267886  0.65384451  0.97635539  1.0
  O  O188  1  0.14615504  0.62883327  0.84302085  1.0
  O  O191  1  0.11732140  0.57116598  0.95697882  1.0
  O  O193  1  0.17116692  0.51732344  0.90968996  1.0
  O  O194  1  0.17116502  0.71731940  0.90968996  1.0
  O  O195  1  0.02883487  0.94615605  0.02364487  1.0
  O  O196  1  0.22883463  0.94615605  0.02364487  1.0
  O  O199  1  0.05384573  0.88268116  0.09031170  1.0
  O  O200  1  0.08267931  0.85384517  0.17635517  1.0
  O  O201  1  0.14615509  0.82883393  0.04302174  1.0
  O  O203  1  0.11732144  0.77116664  0.15697823  1.0
  O  O204  1  0.11732189  0.97116730  0.15697823  1.0
  O  O206  1  0.17116506  0.91732006  0.10968864  1.0
  O  O207  1  0.02883487  0.94615605  0.22364476  1.0
  O  O208  1  0.22883463  0.94615605  0.22364476  1.0
  O  O210  1  0.05384573  0.88268116  0.29031166  1.0
  O  O211  1  0.08267931  0.85384517  0.37635550  1.0
  O  O212  1  0.14615509  0.82883393  0.24302170  1.0
  O  O214  1  0.11732144  0.77116664  0.35697819  1.0
  O  O215  1  0.11732189  0.97116730  0.35697819  1.0
  O  O217  1  0.17116506  0.91732006  0.30968860  1.0
  O  O218  1  0.02883487  0.94615605  0.42364435  1.0
  O  O219  1  0.22883463  0.94615605  0.42364435  1.0
  O  O221  1  0.05384573  0.88268116  0.49030978  1.0
  O  O222  1  0.08267931  0.85384517  0.57635546  1.0
  O  O223  1  0.14615509  0.82883393  0.44302093  1.0
  O  O225  1  0.11732144  0.77116664  0.55697889  1.0
  O  O226  1  0.11732189  0.97116730  0.55697889  1.0
  O  O228  1  0.17116506  0.91732006  0.50969004  1.0
  O  O229  1  0.02883487  0.94615605  0.62364432  1.0
  O  O230  1  0.22883463  0.94615605  0.62364432  1.0
  O  O232  1  0.05384573  0.88268116  0.69030974  1.0
  O  O233  1  0.08267931  0.85384517  0.77635543  1.0
  O  O234  1  0.14615509  0.82883393  0.64302089  1.0
  O  O236  1  0.11732144  0.77116664  0.75697885  1.0
  O  O237  1  0.11732189  0.97116730  0.75697885  1.0
  O  O239  1  0.17116506  0.91732006  0.70969000  1.0
  O  O240  1  0.02883487  0.94615605  0.82364428  1.0
  O  O241  1  0.22883463  0.94615605  0.82364428  1.0
  O  O242  1  0.05384573  0.88268116  0.89031339  1.0
  O  O243  1  0.08267931  0.85384517  0.97635539  1.0
  O  O244  1  0.14615509  0.82883393  0.84302085  1.0
  O  O246  1  0.11732144  0.77116664  0.95697882  1.0
  O  O247  1  0.11732189  0.97116730  0.95697882  1.0
  O  O249  1  0.17116506  0.91732006  0.90968996  1.0
  O  O250  1  0.42883433  0.14615530  0.02364487  1.0
  O  O259  1  0.25384473  0.08267900  0.09031170  1.0
  O  O260  1  0.45384286  0.08267900  0.09031170  1.0
  O  O261  1  0.28267861  0.05384442  0.17635517  1.0
  O  O262  1  0.48267714  0.05384442  0.17635517  1.0
  O  O263  1  0.34615533  0.02883425  0.04302174  1.0
  O  O264  1  0.34615548  0.22883430  0.04302174  1.0
  O  O266  1  0.31732113  0.17116560  0.15697823  1.0
  O  O268  1  0.37116571  0.11732119  0.10968864  1.0
  O  O269  1  0.42883433  0.14615530  0.22364476  1.0
  O  O274  1  0.25384473  0.08267900  0.29031166  1.0
  O  O275  1  0.45384286  0.08267900  0.29031166  1.0
  O  O276  1  0.28267861  0.05384442  0.37635550  1.0
  O  O277  1  0.48267714  0.05384442  0.37635550  1.0
  O  O278  1  0.34615533  0.02883425  0.24302170  1.0
  O  O279  1  0.34615548  0.22883430  0.24302170  1.0
  O  O281  1  0.31732113  0.17116560  0.35697819  1.0
  O  O283  1  0.37116571  0.11732119  0.30968860  1.0
  O  O284  1  0.42883433  0.14615530  0.42364435  1.0
  O  O289  1  0.25384473  0.08267900  0.49030978  1.0
  O  O290  1  0.45384286  0.08267900  0.49030978  1.0
  O  O291  1  0.28267861  0.05384442  0.57635546  1.0
  O  O292  1  0.48267714  0.05384442  0.57635546  1.0
  O  O293  1  0.34615533  0.02883425  0.44302093  1.0
  O  O294  1  0.34615548  0.22883430  0.44302093  1.0
  O  O296  1  0.31732113  0.17116560  0.55697889  1.0
  O  O298  1  0.37116571  0.11732119  0.50969004  1.0
  O  O299  1  0.42883433  0.14615530  0.62364432  1.0
  O  O304  1  0.25384473  0.08267900  0.69030974  1.0
  O  O305  1  0.45384286  0.08267900  0.69030974  1.0
  O  O306  1  0.28267861  0.05384442  0.77635543  1.0
  O  O307  1  0.48267714  0.05384442  0.77635543  1.0
  O  O308  1  0.34615533  0.02883425  0.64302089  1.0
  O  O309  1  0.34615548  0.22883430  0.64302089  1.0
  O  O311  1  0.31732113  0.17116560  0.75697885  1.0
  O  O313  1  0.37116571  0.11732119  0.70969000  1.0
  O  O314  1  0.42883433  0.14615530  0.82364428  1.0
  O  O315  1  0.25384473  0.08267900  0.89031339  1.0
  O  O316  1  0.45384286  0.08267900  0.89031339  1.0
  O  O317  1  0.28267861  0.05384442  0.97635539  1.0
  O  O318  1  0.48267714  0.05384442  0.97635539  1.0
  O  O319  1  0.34615533  0.02883425  0.84302085  1.0
  O  O320  1  0.34615548  0.22883430  0.84302085  1.0
  O  O322  1  0.31732113  0.17116560  0.95697882  1.0
  O  O324  1  0.37116571  0.11732119  0.90968996  1.0
  O  O325  1  0.42883414  0.34615549  0.02364487  1.0
  O  O330  1  0.25384471  0.28267872  0.09031170  1.0
  O  O331  1  0.25384512  0.48267984  0.09031170  1.0
  O  O332  1  0.45384447  0.28267872  0.09031170  1.0
  O  O333  1  0.45384516  0.48267984  0.09031170  1.0
  O  O334  1  0.28267882  0.25384460  0.17635517  1.0
  O  O335  1  0.28267904  0.45384479  0.17635517  1.0
  O  O336  1  0.48267898  0.25384460  0.17635517  1.0
  O  O337  1  0.48267879  0.45384479  0.17635517  1.0
  O  O338  1  0.34615569  0.42883449  0.04302174  1.0
  O  O340  1  0.31732135  0.37116579  0.15697823  1.0
  O  O343  1  0.37116569  0.31732091  0.10968864  1.0
  O  O344  1  0.42883414  0.34615549  0.22364476  1.0
  O  O347  1  0.25384471  0.28267872  0.29031166  1.0
  O  O348  1  0.25384512  0.48267984  0.29031166  1.0
  O  O349  1  0.45384447  0.28267872  0.29031166  1.0
  O  O350  1  0.45384516  0.48267984  0.29031166  1.0
  O  O351  1  0.28267882  0.25384460  0.37635550  1.0
  O  O352  1  0.28267904  0.45384479  0.37635550  1.0
  O  O353  1  0.48267898  0.25384460  0.37635550  1.0
  O  O354  1  0.48267879  0.45384479  0.37635550  1.0
  O  O355  1  0.34615569  0.42883449  0.24302170  1.0
  O  O357  1  0.31732135  0.37116579  0.35697819  1.0
  O  O360  1  0.37116569  0.31732091  0.30968860  1.0
  O  O361  1  0.42883414  0.34615549  0.42364435  1.0
  O  O364  1  0.25384471  0.28267872  0.49030978  1.0
  O  O365  1  0.25384512  0.48267984  0.49030978  1.0
  O  O366  1  0.45384447  0.28267872  0.49030978  1.0
  O  O367  1  0.45384516  0.48267984  0.49030978  1.0
  O  O368  1  0.28267882  0.25384460  0.57635546  1.0
  O  O369  1  0.28267904  0.45384479  0.57635546  1.0
  O  O370  1  0.48267898  0.25384460  0.57635546  1.0
  O  O371  1  0.48267879  0.45384479  0.57635546  1.0
  O  O372  1  0.34615569  0.42883449  0.44302093  1.0
  O  O374  1  0.31732135  0.37116579  0.55697889  1.0
  O  O377  1  0.37116569  0.31732091  0.50969004  1.0
  O  O378  1  0.42883414  0.34615549  0.62364432  1.0
  O  O381  1  0.25384471  0.28267872  0.69030974  1.0
  O  O382  1  0.25384512  0.48267984  0.69030974  1.0
  O  O383  1  0.45384447  0.28267872  0.69030974  1.0
  O  O384  1  0.45384516  0.48267984  0.69030974  1.0
  O  O385  1  0.28267882  0.25384460  0.77635543  1.0
  O  O386  1  0.28267904  0.45384479  0.77635543  1.0
  O  O387  1  0.48267898  0.25384460  0.77635543  1.0
  O  O388  1  0.48267879  0.45384479  0.77635543  1.0
  O  O389  1  0.34615569  0.42883449  0.64302089  1.0
  O  O391  1  0.31732135  0.37116579  0.75697885  1.0
  O  O394  1  0.37116569  0.31732091  0.70969000  1.0
  O  O395  1  0.42883414  0.34615549  0.82364428  1.0
  O  O396  1  0.25384471  0.28267872  0.89031339  1.0
  O  O397  1  0.25384512  0.48267984  0.89031339  1.0
  O  O398  1  0.45384447  0.28267872  0.89031339  1.0
  O  O399  1  0.45384516  0.48267984  0.89031339  1.0
  O  O400  1  0.28267882  0.25384460  0.97635539  1.0
  O  O401  1  0.28267904  0.45384479  0.97635539  1.0
  O  O402  1  0.48267898  0.25384460  0.97635539  1.0
  O  O403  1  0.48267879  0.45384479  0.97635539  1.0
  O  O404  1  0.34615569  0.42883449  0.84302085  1.0
  O  O406  1  0.31732135  0.37116579  0.95697882  1.0
  O  O409  1  0.37116569  0.31732091  0.90968996  1.0
  O  O410  1  0.42883389  0.54615474  0.02364487  1.0
  O  O411  1  0.42883434  0.74615540  0.02364487  1.0
  O  O416  1  0.25384544  0.68268050  0.09031170  1.0
  O  O417  1  0.45384561  0.68268050  0.09031170  1.0
  O  O418  1  0.28267902  0.65384451  0.17635517  1.0
  O  O419  1  0.48267877  0.65384451  0.17635517  1.0
  O  O420  1  0.34615488  0.62883327  0.04302174  1.0
  O  O423  1  0.31732124  0.57116598  0.15697823  1.0
  O  O425  1  0.37116708  0.51732344  0.10968864  1.0
  O  O426  1  0.37116490  0.71731940  0.10968864  1.0
  O  O427  1  0.42883389  0.54615474  0.22364476  1.0
  O  O428  1  0.42883434  0.74615540  0.22364476  1.0
  O  O431  1  0.25384544  0.68268050  0.29031166  1.0
  O  O432  1  0.45384561  0.68268050  0.29031166  1.0
  O  O433  1  0.28267902  0.65384451  0.37635550  1.0
  O  O434  1  0.48267877  0.65384451  0.37635550  1.0
  O  O435  1  0.34615488  0.62883327  0.24302170  1.0
  O  O438  1  0.31732124  0.57116598  0.35697819  1.0
  O  O440  1  0.37116708  0.51732344  0.30968860  1.0
  O  O441  1  0.37116490  0.71731940  0.30968860  1.0
  O  O442  1  0.42883389  0.54615474  0.42364435  1.0
  O  O443  1  0.42883434  0.74615540  0.42364435  1.0
  O  O446  1  0.25384544  0.68268050  0.49030978  1.0
  O  O447  1  0.45384561  0.68268050  0.49030978  1.0
  O  O448  1  0.28267902  0.65384451  0.57635546  1.0
  O  O449  1  0.48267877  0.65384451  0.57635546  1.0
  O  O450  1  0.34615488  0.62883327  0.44302093  1.0
  O  O453  1  0.31732124  0.57116598  0.55697889  1.0
  O  O455  1  0.37116708  0.51732344  0.50969004  1.0
  O  O456  1  0.37116490  0.71731940  0.50969004  1.0
  O  O457  1  0.42883389  0.54615474  0.62364432  1.0
  O  O458  1  0.42883434  0.74615540  0.62364432  1.0
  O  O461  1  0.25384544  0.68268050  0.69030974  1.0
  O  O462  1  0.45384561  0.68268050  0.69030974  1.0
  O  O463  1  0.28267902  0.65384451  0.77635543  1.0
  O  O464  1  0.48267877  0.65384451  0.77635543  1.0
  O  O465  1  0.34615488  0.62883327  0.64302089  1.0
  O  O468  1  0.31732124  0.57116598  0.75697885  1.0
  O  O470  1  0.37116708  0.51732344  0.70969000  1.0
  O  O471  1  0.37116490  0.71731940  0.70969000  1.0
  O  O472  1  0.42883389  0.54615474  0.82364428  1.0
  O  O473  1  0.42883434  0.74615540  0.82364428  1.0
  O  O474  1  0.25384544  0.68268050  0.89031339  1.0
  O  O475  1  0.45384561  0.68268050  0.89031339  1.0
  O  O476  1  0.28267902  0.65384451  0.97635539  1.0
  O  O477  1  0.48267877  0.65384451  0.97635539  1.0
  O  O478  1  0.34615488  0.62883327  0.84302085  1.0
  O  O481  1  0.31732124  0.57116598  0.95697882  1.0
  O  O483  1  0.37116708  0.51732344  0.90968996  1.0
  O  O484  1  0.37116490  0.71731940  0.90968996  1.0
  O  O485  1  0.42883479  0.94615605  0.02364487  1.0
  O  O490  1  0.25384590  0.88268116  0.09031170  1.0
  O  O491  1  0.45384577  0.88268116  0.09031170  1.0
  O  O492  1  0.28267906  0.85384517  0.17635517  1.0
  O  O493  1  0.48267923  0.85384517  0.17635517  1.0
  O  O494  1  0.34615525  0.82883393  0.04302174  1.0
  O  O496  1  0.31732161  0.77116664  0.15697823  1.0
  O  O497  1  0.31732206  0.97116730  0.15697823  1.0
  O  O499  1  0.37116522  0.91732006  0.10968864  1.0
  O  O500  1  0.42883479  0.94615605  0.22364476  1.0
  O  O503  1  0.25384590  0.88268116  0.29031166  1.0
  O  O504  1  0.45384577  0.88268116  0.29031166  1.0
  O  O505  1  0.28267906  0.85384517  0.37635550  1.0
  O  O506  1  0.48267923  0.85384517  0.37635550  1.0
  O  O507  1  0.34615525  0.82883393  0.24302170  1.0
  O  O509  1  0.31732161  0.77116664  0.35697819  1.0
  O  O510  1  0.31732206  0.97116730  0.35697819  1.0
  O  O512  1  0.37116522  0.91732006  0.30968860  1.0
  O  O513  1  0.42883479  0.94615605  0.42364435  1.0
  O  O516  1  0.25384590  0.88268116  0.49030978  1.0
  O  O517  1  0.45384577  0.88268116  0.49030978  1.0
  O  O518  1  0.28267906  0.85384517  0.57635546  1.0
  O  O519  1  0.48267923  0.85384517  0.57635546  1.0
  O  O520  1  0.34615525  0.82883393  0.44302093  1.0
  O  O522  1  0.31732161  0.77116664  0.55697889  1.0
  O  O523  1  0.31732206  0.97116730  0.55697889  1.0
  O  O525  1  0.37116522  0.91732006  0.50969004  1.0
  O  O526  1  0.42883479  0.94615605  0.62364432  1.0
  O  O529  1  0.25384590  0.88268116  0.69030974  1.0
  O  O530  1  0.45384577  0.88268116  0.69030974  1.0
  O  O531  1  0.28267906  0.85384517  0.77635543  1.0
  O  O532  1  0.48267923  0.85384517  0.77635543  1.0
  O  O533  1  0.34615525  0.82883393  0.64302089  1.0
  O  O535  1  0.31732161  0.77116664  0.75697885  1.0
  O  O536  1  0.31732206  0.97116730  0.75697885  1.0
  O  O538  1  0.37116522  0.91732006  0.70969000  1.0
  O  O539  1  0.42883479  0.94615605  0.82364428  1.0
  O  O540  1  0.25384590  0.88268116  0.89031339  1.0
  O  O541  1  0.45384577  0.88268116  0.89031339  1.0
  O  O542  1  0.28267906  0.85384517  0.97635539  1.0
  O  O543  1  0.48267923  0.85384517  0.97635539  1.0
  O  O544  1  0.34615525  0.82883393  0.84302085  1.0
  O  O546  1  0.31732161  0.77116664  0.95697882  1.0
  O  O547  1  0.31732206  0.97116730  0.95697882  1.0
  O  O549  1  0.37116522  0.91732006  0.90968996  1.0
  O  O550  1  0.62883328  0.14615530  0.02364487  1.0
  O  O555  1  0.65384425  0.08267900  0.09031170  1.0
  O  O556  1  0.68267852  0.05384442  0.17635517  1.0
  O  O557  1  0.54615631  0.02883425  0.04302174  1.0
  O  O558  1  0.54615564  0.22883430  0.04302174  1.0
  O  O559  1  0.74615362  0.02883425  0.04302174  1.0
  O  O560  1  0.74615702  0.22883430  0.04302174  1.0
  O  O563  1  0.51732129  0.17116560  0.15697823  1.0
  O  O564  1  0.71732268  0.17116560  0.15697823  1.0
  O  O566  1  0.57116465  0.11732119  0.10968864  1.0
  O  O567  1  0.62883328  0.14615530  0.22364476  1.0
  O  O570  1  0.65384425  0.08267900  0.29031166  1.0
  O  O571  1  0.68267852  0.05384442  0.37635550  1.0
  O  O572  1  0.54615631  0.02883425  0.24302170  1.0
  O  O573  1  0.54615564  0.22883430  0.24302170  1.0
  O  O574  1  0.74615362  0.02883425  0.24302170  1.0
  O  O575  1  0.74615702  0.22883430  0.24302170  1.0
  O  O578  1  0.51732129  0.17116560  0.35697819  1.0
  O  O579  1  0.71732268  0.17116560  0.35697819  1.0
  O  O581  1  0.57116465  0.11732119  0.30968860  1.0
  O  O582  1  0.62883328  0.14615530  0.42364435  1.0
  O  O585  1  0.65384425  0.08267900  0.49030978  1.0
  O  O586  1  0.68267852  0.05384442  0.57635546  1.0
  O  O587  1  0.54615631  0.02883425  0.44302093  1.0
  O  O588  1  0.54615564  0.22883430  0.44302093  1.0
  O  O589  1  0.74615362  0.02883425  0.44302093  1.0
  O  O590  1  0.74615702  0.22883430  0.44302093  1.0
  O  O593  1  0.51732129  0.17116560  0.55697889  1.0
  O  O594  1  0.71732268  0.17116560  0.55697889  1.0
  O  O596  1  0.57116465  0.11732119  0.50969004  1.0
  O  O597  1  0.62883328  0.14615530  0.62364432  1.0
  O  O600  1  0.65384425  0.08267900  0.69030974  1.0
  O  O601  1  0.68267852  0.05384442  0.77635543  1.0
  O  O602  1  0.54615631  0.02883425  0.64302089  1.0
  O  O603  1  0.54615564  0.22883430  0.64302089  1.0
  O  O604  1  0.74615362  0.02883425  0.64302089  1.0
  O  O605  1  0.74615702  0.22883430  0.64302089  1.0
  O  O608  1  0.51732129  0.17116560  0.75697885  1.0
  O  O609  1  0.71732268  0.17116560  0.75697885  1.0
  O  O611  1  0.57116465  0.11732119  0.70969000  1.0
  O  O612  1  0.62883328  0.14615530  0.82364428  1.0
  O  O613  1  0.65384425  0.08267900  0.89031339  1.0
  O  O614  1  0.68267852  0.05384442  0.97635539  1.0
  O  O615  1  0.54615631  0.02883425  0.84302085  1.0
  O  O616  1  0.54615564  0.22883430  0.84302085  1.0
  O  O617  1  0.74615362  0.02883425  0.84302085  1.0
  O  O618  1  0.74615702  0.22883430  0.84302085  1.0
  O  O621  1  0.51732129  0.17116560  0.95697882  1.0
  O  O622  1  0.71732268  0.17116560  0.95697882  1.0
  O  O624  1  0.57116465  0.11732119  0.90968996  1.0
  O  O625  1  0.62883268  0.34615549  0.02364487  1.0
  O  O628  1  0.65384341  0.28267872  0.09031170  1.0
  O  O629  1  0.65384328  0.48267984  0.09031170  1.0
  O  O630  1  0.68267793  0.25384460  0.17635517  1.0
  O  O631  1  0.68267733  0.45384479  0.17635517  1.0
  O  O632  1  0.54615545  0.42883449  0.04302174  1.0
  O  O633  1  0.74615643  0.42883449  0.04302174  1.0
  O  O636  1  0.51732110  0.37116579  0.15697823  1.0
  O  O637  1  0.71732208  0.37116579  0.15697823  1.0
  O  O640  1  0.57116382  0.31732091  0.10968864  1.0
  O  O641  1  0.62883268  0.34615549  0.22364476  1.0
  O  O643  1  0.65384341  0.28267872  0.29031166  1.0
  O  O644  1  0.65384328  0.48267984  0.29031166  1.0
  O  O645  1  0.68267793  0.25384460  0.37635550  1.0
  O  O646  1  0.68267733  0.45384479  0.37635550  1.0
  O  O647  1  0.54615545  0.42883449  0.24302170  1.0
  O  O648  1  0.74615643  0.42883449  0.24302170  1.0
  O  O651  1  0.51732110  0.37116579  0.35697819  1.0
  O  O652  1  0.71732208  0.37116579  0.35697819  1.0
  O  O655  1  0.57116382  0.31732091  0.30968860  1.0
  O  O656  1  0.62883268  0.34615549  0.42364435  1.0
  O  O658  1  0.65384341  0.28267872  0.49030978  1.0
  O  O659  1  0.65384328  0.48267984  0.49030978  1.0
  O  O660  1  0.68267793  0.25384460  0.57635546  1.0
  O  O661  1  0.68267733  0.45384479  0.57635546  1.0
  O  O662  1  0.54615545  0.42883449  0.44302093  1.0
  O  O663  1  0.74615643  0.42883449  0.44302093  1.0
  O  O666  1  0.51732110  0.37116579  0.55697889  1.0
  O  O667  1  0.71732208  0.37116579  0.55697889  1.0
  O  O670  1  0.57116382  0.31732091  0.50969004  1.0
  O  O671  1  0.62883268  0.34615549  0.62364432  1.0
  O  O673  1  0.65384341  0.28267872  0.69030974  1.0
  O  O674  1  0.65384328  0.48267984  0.69030974  1.0
  O  O675  1  0.68267793  0.25384460  0.77635543  1.0
  O  O676  1  0.68267733  0.45384479  0.77635543  1.0
  O  O677  1  0.54615545  0.42883449  0.64302089  1.0
  O  O678  1  0.74615643  0.42883449  0.64302089  1.0
  O  O681  1  0.51732110  0.37116579  0.75697885  1.0
  O  O682  1  0.71732208  0.37116579  0.75697885  1.0
  O  O685  1  0.57116382  0.31732091  0.70969000  1.0
  O  O686  1  0.62883268  0.34615549  0.82364428  1.0
  O  O687  1  0.65384341  0.28267872  0.89031339  1.0
  O  O688  1  0.65384328  0.48267984  0.89031339  1.0
  O  O689  1  0.68267793  0.25384460  0.97635539  1.0
  O  O690  1  0.68267733  0.45384479  0.97635539  1.0
  O  O691  1  0.54615545  0.42883449  0.84302085  1.0
  O  O692  1  0.74615643  0.42883449  0.84302085  1.0
  O  O695  1  0.51732110  0.37116579  0.95697882  1.0
  O  O696  1  0.71732208  0.37116579  0.95697882  1.0
  O  O699  1  0.57116382  0.31732091  0.90968996  1.0
  O  O700  1  0.62883405  0.54615474  0.02364487  1.0
  O  O701  1  0.62883410  0.74615540  0.02364487  1.0
  O  O704  1  0.65384536  0.68268050  0.09031170  1.0
  O  O705  1  0.68267894  0.65384451  0.17635517  1.0
  O  O706  1  0.54615496  0.62883327  0.04302174  1.0
  O  O707  1  0.74615512  0.62883327  0.04302174  1.0
  O  O712  1  0.51732132  0.57116598  0.15697823  1.0
  O  O713  1  0.71732148  0.57116598  0.15697823  1.0
  O  O715  1  0.57116683  0.51732344  0.10968864  1.0
  O  O716  1  0.57116494  0.71731940  0.10968864  1.0
  O  O717  1  0.62883405  0.54615474  0.22364476  1.0
  O  O718  1  0.62883410  0.74615540  0.22364476  1.0
  O  O720  1  0.65384536  0.68268050  0.29031166  1.0
  O  O721  1  0.68267894  0.65384451  0.37635550  1.0
  O  O722  1  0.54615496  0.62883327  0.24302170  1.0
  O  O723  1  0.74615512  0.62883327  0.24302170  1.0
  O  O728  1  0.51732132  0.57116598  0.35697819  1.0
  O  O729  1  0.71732148  0.57116598  0.35697819  1.0
  O  O731  1  0.57116683  0.51732344  0.30968860  1.0
  O  O732  1  0.57116494  0.71731940  0.30968860  1.0
  O  O733  1  0.62883405  0.54615474  0.42364435  1.0
  O  O734  1  0.62883410  0.74615540  0.42364435  1.0
  O  O736  1  0.65384536  0.68268050  0.49030978  1.0
  O  O737  1  0.68267894  0.65384451  0.57635546  1.0
  O  O738  1  0.54615496  0.62883327  0.44302093  1.0
  O  O739  1  0.74615512  0.62883327  0.44302093  1.0
  O  O744  1  0.51732132  0.57116598  0.55697889  1.0
  O  O745  1  0.71732148  0.57116598  0.55697889  1.0
  O  O747  1  0.57116683  0.51732344  0.50969004  1.0
  O  O748  1  0.57116494  0.71731940  0.50969004  1.0
  O  O749  1  0.62883405  0.54615474  0.62364432  1.0
  O  O750  1  0.62883410  0.74615540  0.62364432  1.0
  O  O752  1  0.65384536  0.68268050  0.69030974  1.0
  O  O753  1  0.68267894  0.65384451  0.77635543  1.0
  O  O754  1  0.54615496  0.62883327  0.64302089  1.0
  O  O755  1  0.74615512  0.62883327  0.64302089  1.0
  O  O760  1  0.51732132  0.57116598  0.75697885  1.0
  O  O761  1  0.71732148  0.57116598  0.75697885  1.0
  O  O763  1  0.57116683  0.51732344  0.70969000  1.0
  O  O764  1  0.57116494  0.71731940  0.70969000  1.0
  O  O765  1  0.62883405  0.54615474  0.82364428  1.0
  O  O766  1  0.62883410  0.74615540  0.82364428  1.0
  O  O767  1  0.65384536  0.68268050  0.89031339  1.0
  O  O768  1  0.68267894  0.65384451  0.97635539  1.0
  O  O769  1  0.54615496  0.62883327  0.84302085  1.0
  O  O770  1  0.74615512  0.62883327  0.84302085  1.0
  O  O775  1  0.51732132  0.57116598  0.95697882  1.0
  O  O776  1  0.71732148  0.57116598  0.95697882  1.0
  O  O778  1  0.57116683  0.51732344  0.90968996  1.0
  O  O779  1  0.57116494  0.71731940  0.90968996  1.0
  O  O780  1  0.62883455  0.94615605  0.02364487  1.0
  O  O783  1  0.65384581  0.88268116  0.09031170  1.0
  O  O784  1  0.68267898  0.85384517  0.17635517  1.0
  O  O785  1  0.54615541  0.82883393  0.04302174  1.0
  O  O786  1  0.74615517  0.82883393  0.04302174  1.0
  O  O789  1  0.51732177  0.77116664  0.15697823  1.0
  O  O790  1  0.51732189  0.97116730  0.15697823  1.0
  O  O791  1  0.71732152  0.77116664  0.15697823  1.0
  O  O792  1  0.71732198  0.97116730  0.15697823  1.0
  O  O794  1  0.57116539  0.91732006  0.10968864  1.0
  O  O795  1  0.62883455  0.94615605  0.22364476  1.0
  O  O797  1  0.65384581  0.88268116  0.29031166  1.0
  O  O798  1  0.68267898  0.85384517  0.37635550  1.0
  O  O799  1  0.54615541  0.82883393  0.24302170  1.0
  O  O800  1  0.74615517  0.82883393  0.24302170  1.0
  O  O803  1  0.51732177  0.77116664  0.35697819  1.0
  O  O804  1  0.51732189  0.97116730  0.35697819  1.0
  O  O805  1  0.71732152  0.77116664  0.35697819  1.0
  O  O806  1  0.71732198  0.97116730  0.35697819  1.0
  O  O808  1  0.57116539  0.91732006  0.30968860  1.0
  O  O809  1  0.62883455  0.94615605  0.42364435  1.0
  O  O811  1  0.65384581  0.88268116  0.49030978  1.0
  O  O812  1  0.68267898  0.85384517  0.57635546  1.0
  O  O813  1  0.54615541  0.82883393  0.44302093  1.0
  O  O814  1  0.74615517  0.82883393  0.44302093  1.0
  O  O817  1  0.51732177  0.77116664  0.55697889  1.0
  O  O818  1  0.51732189  0.97116730  0.55697889  1.0
  O  O819  1  0.71732152  0.77116664  0.55697889  1.0
  O  O820  1  0.71732198  0.97116730  0.55697889  1.0
  O  O822  1  0.57116539  0.91732006  0.50969004  1.0
  O  O823  1  0.62883455  0.94615605  0.62364432  1.0
  O  O825  1  0.65384581  0.88268116  0.69030974  1.0
  O  O826  1  0.68267898  0.85384517  0.77635543  1.0
  O  O827  1  0.54615541  0.82883393  0.64302089  1.0
  O  O828  1  0.74615517  0.82883393  0.64302089  1.0
  O  O831  1  0.51732177  0.77116664  0.75697885  1.0
  O  O832  1  0.51732189  0.97116730  0.75697885  1.0
  O  O833  1  0.71732152  0.77116664  0.75697885  1.0
  O  O834  1  0.71732198  0.97116730  0.75697885  1.0
  O  O836  1  0.57116539  0.91732006  0.70969000  1.0
  O  O837  1  0.62883455  0.94615605  0.82364428  1.0
  O  O838  1  0.65384581  0.88268116  0.89031339  1.0
  O  O839  1  0.68267898  0.85384517  0.97635539  1.0
  O  O840  1  0.54615541  0.82883393  0.84302085  1.0
  O  O841  1  0.74615517  0.82883393  0.84302085  1.0
  O  O844  1  0.51732177  0.77116664  0.95697882  1.0
  O  O845  1  0.51732189  0.97116730  0.95697882  1.0
  O  O846  1  0.71732152  0.77116664  0.95697882  1.0
  O  O847  1  0.71732198  0.97116730  0.95697882  1.0
  O  O849  1  0.57116539  0.91732006  0.90968996  1.0
  O  O850  1  0.82883466  0.14615530  0.02364487  1.0
  O  O855  1  0.85384563  0.08267900  0.09031170  1.0
  O  O856  1  0.88267991  0.05384442  0.17635517  1.0
  O  O857  1  0.94615501  0.02883425  0.04302174  1.0
  O  O858  1  0.94615434  0.22883430  0.04302174  1.0
  O  O860  1  0.91731999  0.17116560  0.15697823  1.0
  O  O863  1  0.77116603  0.11732119  0.10968864  1.0
  O  O864  1  0.97116742  0.11732119  0.10968864  1.0
  O  O865  1  0.82883466  0.14615530  0.22364476  1.0
  O  O868  1  0.85384563  0.08267900  0.29031166  1.0
  O  O869  1  0.88267991  0.05384442  0.37635550  1.0
  O  O870  1  0.94615501  0.02883425  0.24302170  1.0
  O  O871  1  0.94615434  0.22883430  0.24302170  1.0
  O  O873  1  0.91731999  0.17116560  0.35697819  1.0
  O  O876  1  0.77116603  0.11732119  0.30968860  1.0
  O  O877  1  0.97116742  0.11732119  0.30968860  1.0
  O  O878  1  0.82883466  0.14615530  0.42364435  1.0
  O  O881  1  0.85384563  0.08267900  0.49030978  1.0
  O  O882  1  0.88267991  0.05384442  0.57635546  1.0
  O  O883  1  0.94615501  0.02883425  0.44302093  1.0
  O  O884  1  0.94615434  0.22883430  0.44302093  1.0
  O  O886  1  0.91731999  0.17116560  0.55697889  1.0
  O  O889  1  0.77116603  0.11732119  0.50969004  1.0
  O  O890  1  0.97116742  0.11732119  0.50969004  1.0
  O  O891  1  0.82883466  0.14615530  0.62364432  1.0
  O  O894  1  0.85384563  0.08267900  0.69030974  1.0
  O  O895  1  0.88267991  0.05384442  0.77635543  1.0
  O  O896  1  0.94615501  0.02883425  0.64302089  1.0
  O  O897  1  0.94615434  0.22883430  0.64302089  1.0
  O  O899  1  0.91731999  0.17116560  0.75697885  1.0
  O  O902  1  0.77116603  0.11732119  0.70969000  1.0
  O  O903  1  0.97116742  0.11732119  0.70969000  1.0
  O  O904  1  0.82883466  0.14615530  0.82364428  1.0
  O  O905  1  0.85384563  0.08267900  0.89031339  1.0
  O  O906  1  0.88267991  0.05384442  0.97635539  1.0
  O  O907  1  0.94615501  0.02883425  0.84302085  1.0
  O  O908  1  0.94615434  0.22883430  0.84302085  1.0
  O  O910  1  0.91731999  0.17116560  0.95697882  1.0
  O  O913  1  0.77116603  0.11732119  0.90968996  1.0
  O  O914  1  0.97116742  0.11732119  0.90968996  1.0
  O  O915  1  0.82883406  0.34615549  0.02364487  1.0
  O  O918  1  0.85384480  0.28267872  0.09031170  1.0
  O  O919  1  0.85384467  0.48267984  0.09031170  1.0
  O  O920  1  0.88267931  0.25384460  0.17635517  1.0
  O  O921  1  0.88267871  0.45384479  0.17635517  1.0
  O  O922  1  0.94615374  0.42883449  0.04302174  1.0
  O  O924  1  0.91731939  0.37116579  0.15697823  1.0
  O  O929  1  0.77116520  0.31732091  0.10968864  1.0
  O  O930  1  0.97116658  0.31732091  0.10968864  1.0
  O  O931  1  0.82883406  0.34615549  0.22364476  1.0
  O  O933  1  0.85384480  0.28267872  0.29031166  1.0
  O  O934  1  0.85384467  0.48267984  0.29031166  1.0
  O  O935  1  0.88267931  0.25384460  0.37635550  1.0
  O  O936  1  0.88267871  0.45384479  0.37635550  1.0
  O  O937  1  0.94615374  0.42883449  0.24302170  1.0
  O  O939  1  0.91731939  0.37116579  0.35697819  1.0
  O  O944  1  0.77116520  0.31732091  0.30968860  1.0
  O  O945  1  0.97116658  0.31732091  0.30968860  1.0
  O  O946  1  0.82883406  0.34615549  0.42364435  1.0
  O  O948  1  0.85384480  0.28267872  0.49030978  1.0
  O  O949  1  0.85384467  0.48267984  0.49030978  1.0
  O  O950  1  0.88267931  0.25384460  0.57635546  1.0
  O  O951  1  0.88267871  0.45384479  0.57635546  1.0
  O  O952  1  0.94615374  0.42883449  0.44302093  1.0
  O  O954  1  0.91731939  0.37116579  0.55697889  1.0
  O  O959  1  0.77116520  0.31732091  0.50969004  1.0
  O  O960  1  0.97116658  0.31732091  0.50969004  1.0
  O  O961  1  0.82883406  0.34615549  0.62364432  1.0
  O  O963  1  0.85384480  0.28267872  0.69030974  1.0
  O  O964  1  0.85384467  0.48267984  0.69030974  1.0
  O  O965  1  0.88267931  0.25384460  0.77635543  1.0
  O  O966  1  0.88267871  0.45384479  0.77635543  1.0
  O  O967  1  0.94615374  0.42883449  0.64302089  1.0
  O  O969  1  0.91731939  0.37116579  0.75697885  1.0
  O  O974  1  0.77116520  0.31732091  0.70969000  1.0
  O  O975  1  0.97116658  0.31732091  0.70969000  1.0
  O  O976  1  0.82883406  0.34615549  0.82364428  1.0
  O  O977  1  0.85384480  0.28267872  0.89031339  1.0
  O  O978  1  0.85384467  0.48267984  0.89031339  1.0
  O  O979  1  0.88267931  0.25384460  0.97635539  1.0
  O  O980  1  0.88267871  0.45384479  0.97635539  1.0
  O  O981  1  0.94615374  0.42883449  0.84302085  1.0
  O  O983  1  0.91731939  0.37116579  0.95697882  1.0
  O  O988  1  0.77116520  0.31732091  0.90968996  1.0
  O  O989  1  0.97116658  0.31732091  0.90968996  1.0
  O  O990  1  0.82883299  0.54615474  0.02364487  1.0
  O  O991  1  0.82883263  0.74615540  0.02364487  1.0
  O  O994  1  0.85384431  0.68268050  0.09031170  1.0
  O  O995  1  0.88267788  0.65384451  0.17635517  1.0
  O  O996  1  0.94615651  0.62883327  0.04302174  1.0
  O  O999  1  0.91732286  0.57116598  0.15697823  1.0
  O  O1002  1  0.77116578  0.51732344  0.10968864  1.0
  O  O1003  1  0.77116306  0.71731940  0.10968864  1.0
  O  O1004  1  0.97116716  0.51732344  0.10968864  1.0
  O  O1005  1  0.97116445  0.71731940  0.10968864  1.0
  O  O1006  1  0.82883299  0.54615474  0.22364476  1.0
  O  O1007  1  0.82883263  0.74615540  0.22364476  1.0
  O  O1009  1  0.85384431  0.68268050  0.29031166  1.0
  O  O1010  1  0.88267788  0.65384451  0.37635550  1.0
  O  O1011  1  0.94615651  0.62883327  0.24302170  1.0
  O  O1014  1  0.91732286  0.57116598  0.35697819  1.0
  O  O1017  1  0.77116578  0.51732344  0.30968860  1.0
  O  O1018  1  0.77116306  0.71731940  0.30968860  1.0
  O  O1019  1  0.97116716  0.51732344  0.30968860  1.0
  O  O1020  1  0.97116445  0.71731940  0.30968860  1.0
  O  O1021  1  0.82883299  0.54615474  0.42364435  1.0
  O  O1022  1  0.82883263  0.74615540  0.42364435  1.0
  O  O1024  1  0.85384431  0.68268050  0.49030978  1.0
  O  O1025  1  0.88267788  0.65384451  0.57635546  1.0
  O  O1026  1  0.94615651  0.62883327  0.44302093  1.0
  O  O1029  1  0.91732286  0.57116598  0.55697889  1.0
  O  O1032  1  0.77116578  0.51732344  0.50969004  1.0
  O  O1033  1  0.77116306  0.71731940  0.50969004  1.0
  O  O1034  1  0.97116716  0.51732344  0.50969004  1.0
  O  O1035  1  0.97116445  0.71731940  0.50969004  1.0
  O  O1036  1  0.82883299  0.54615474  0.62364432  1.0
  O  O1037  1  0.82883263  0.74615540  0.62364432  1.0
  O  O1039  1  0.85384431  0.68268050  0.69030974  1.0
  O  O1040  1  0.88267788  0.65384451  0.77635543  1.0
  O  O1041  1  0.94615651  0.62883327  0.64302089  1.0
  O  O1044  1  0.91732286  0.57116598  0.75697885  1.0
  O  O1047  1  0.77116578  0.51732344  0.70969000  1.0
  O  O1048  1  0.77116306  0.71731940  0.70969000  1.0
  O  O1049  1  0.97116716  0.51732344  0.70969000  1.0
  O  O1050  1  0.97116445  0.71731940  0.70969000  1.0
  O  O1051  1  0.82883299  0.54615474  0.82364428  1.0
  O  O1052  1  0.82883263  0.74615540  0.82364428  1.0
  O  O1053  1  0.85384431  0.68268050  0.89031339  1.0
  O  O1054  1  0.88267788  0.65384451  0.97635539  1.0
  O  O1055  1  0.94615651  0.62883327  0.84302085  1.0
  O  O1058  1  0.91732286  0.57116598  0.95697882  1.0
  O  O1061  1  0.77116578  0.51732344  0.90968996  1.0
  O  O1062  1  0.77116306  0.71731940  0.90968996  1.0
  O  O1063  1  0.97116716  0.51732344  0.90968996  1.0
  O  O1064  1  0.97116445  0.71731940  0.90968996  1.0
  O  O1065  1  0.82883471  0.94615605  0.02364487  1.0
  O  O1068  1  0.85384394  0.88268116  0.09031170  1.0
  O  O1069  1  0.88267752  0.85384517  0.17635517  1.0
  O  O1070  1  0.94615614  0.82883393  0.04302174  1.0
  O  O1072  1  0.91732250  0.77116664  0.15697823  1.0
  O  O1073  1  0.91732214  0.97116730  0.15697823  1.0
  O  O1076  1  0.77116514  0.91732006  0.10968864  1.0
  O  O1077  1  0.97116408  0.91732006  0.10968864  1.0
  O  O1078  1  0.82883471  0.94615605  0.22364476  1.0
  O  O1080  1  0.85384394  0.88268116  0.29031166  1.0
  O  O1081  1  0.88267752  0.85384517  0.37635550  1.0
  O  O1082  1  0.94615614  0.82883393  0.24302170  1.0
  O  O1084  1  0.91732250  0.77116664  0.35697819  1.0
  O  O1085  1  0.91732214  0.97116730  0.35697819  1.0
  O  O1088  1  0.77116514  0.91732006  0.30968860  1.0
  O  O1089  1  0.97116408  0.91732006  0.30968860  1.0
  O  O1090  1  0.82883471  0.94615605  0.42364435  1.0
  O  O1092  1  0.85384394  0.88268116  0.49030978  1.0
  O  O1093  1  0.88267752  0.85384517  0.57635546  1.0
  O  O1094  1  0.94615614  0.82883393  0.44302093  1.0
  O  O1096  1  0.91732250  0.77116664  0.55697889  1.0
  O  O1097  1  0.91732214  0.97116730  0.55697889  1.0
  O  O1100  1  0.77116514  0.91732006  0.50969004  1.0
  O  O1101  1  0.97116408  0.91732006  0.50969004  1.0
  O  O1102  1  0.82883471  0.94615605  0.62364432  1.0
  O  O1104  1  0.85384394  0.88268116  0.69030974  1.0
  O  O1105  1  0.88267752  0.85384517  0.77635543  1.0
  O  O1106  1  0.94615614  0.82883393  0.64302089  1.0
  O  O1108  1  0.91732250  0.77116664  0.75697885  1.0
  O  O1109  1  0.91732214  0.97116730  0.75697885  1.0
  O  O1112  1  0.77116514  0.91732006  0.70969000  1.0
  O  O1113  1  0.97116408  0.91732006  0.70969000  1.0
  O  O1114  1  0.82883471  0.94615605  0.82364428  1.0
  O  O1115  1  0.85384394  0.88268116  0.89031339  1.0
  O  O1116  1  0.88267752  0.85384517  0.97635539  1.0
  O  O1117  1  0.94615614  0.82883393  0.84302085  1.0
  O  O1119  1  0.91732250  0.77116664  0.95697882  1.0
  O  O1120  1  0.91732214  0.97116730  0.95697882  1.0
  O  O1123  1  0.77116514  0.91732006  0.90968996  1.0
  O  O1124  1  0.97116408  0.91732006  0.90968996  1.0
